
  Mrv0541 08052111042D          

 27 30  0  0  0  0            999 V2000
   -0.5837   -1.4124    0.0000 N   0  0  0  0  0  0  0  0  0  0  0  0
   -0.1712   -0.6979    0.0000 C   0  0  0  0  0  0  0  0  0  0  0  0
   -0.5837    0.0165    0.0000 N   0  0  0  0  0  0  0  0  0  0  0  0
    0.6538   -0.6979    0.0000 C   0  0  0  0  0  0  0  0  0  0  0  0
    1.1387   -0.0305    0.0000 C   0  0  0  0  0  0  0  0  0  0  0  0
    1.9233   -0.2854    0.0000 C   0  0  0  0  0  0  0  0  0  0  0  0
    2.6378    0.1271    0.0000 C   0  0  0  0  0  0  0  0  0  0  0  0
    3.3523   -0.2854    0.0000 C   0  0  0  0  0  0  0  0  0  0  0  0
    4.0668    0.1271    0.0000 C   0  0  0  0  0  0  0  0  0  0  0  0
    4.0668    0.9521    0.0000 C   0  0  0  0  0  0  0  0  0  0  0  0
    4.7812    1.3646    0.0000 C   0  0  0  0  0  0  0  0  0  0  0  0
    5.4957    0.9521    0.0000 C   0  0  0  0  0  0  0  0  0  0  0  0
    5.4957    0.1271    0.0000 C   0  0  0  0  0  0  0  0  0  0  0  0
    6.2102   -0.2854    0.0000 O   0  0  0  0  0  0  0  0  0  0  0  0
    6.9246    0.1271    0.0000 C   0  0  0  0  0  0  0  0  0  0  0  0
    7.6391   -0.2854    0.0000 C   0  0  0  0  0  0  0  0  0  0  0  0
    8.3536    0.1271    0.0000 C   0  0  0  0  0  0  0  0  0  0  0  0
    9.0681   -0.2854    0.0000 C   0  0  0  0  0  0  0  0  0  0  0  0
    9.0681   -1.1104    0.0000 C   0  0  0  0  0  0  0  0  0  0  0  0
    9.7825   -1.5229    0.0000 Cl  0  0  0  0  0  0  0  0  0  0  0  0
    8.3536   -1.5229    0.0000 C   0  0  0  0  0  0  0  0  0  0  0  0
    7.6391   -1.1104    0.0000 C   0  0  0  0  0  0  0  0  0  0  0  0
    4.7812   -0.2854    0.0000 C   0  0  0  0  0  0  0  0  0  0  0  0
    3.3523   -1.1104    0.0000 C   0  0  0  0  0  0  0  0  0  0  0  0
    2.6378   -1.5229    0.0000 C   0  0  0  0  0  0  0  0  0  0  0  0
    1.9233   -1.1104    0.0000 C   0  0  0  0  0  0  0  0  0  0  0  0
    1.1387   -1.3654    0.0000 S   0  0  0  0  0  0  0  0  0  0  0  0
  1  2  2  0  0  0  0
  2  3  1  0  0  0  0
  2  4  1  0  0  0  0
  4  5  4  0  0  0  0
  5  6  4  0  0  0  0
  6  7  4  0  0  0  0
  7  8  4  0  0  0  0
  8  9  1  0  0  0  0
  9 10  4  0  0  0  0
 10 11  4  0  0  0  0
 11 12  4  0  0  0  0
 12 13  4  0  0  0  0
 13 14  1  0  0  0  0
 14 15  1  0  0  0  0
 15 16  1  0  0  0  0
 16 17  4  0  0  0  0
 17 18  4  0  0  0  0
 18 19  4  0  0  0  0
 19 20  1  0  0  0  0
 19 21  4  0  0  0  0
 21 22  4  0  0  0  0
 16 22  4  0  0  0  0
 13 23  4  0  0  0  0
  9 23  4  0  0  0  0
  8 24  4  0  0  0  0
 24 25  4  0  0  0  0
 25 26  4  0  0  0  0
  6 26  4  0  0  0  0
 26 27  4  0  0  0  0
  4 27  4  0  0  0  0
M  END
>  <CdId>
358283

>  <Mol Weight>
392.901

>  <Formula>
C22H17ClN2OS

>  <cmpd_chemblid>
CHEMBL597575

>  <std_type>
Ki

>  <std_value>
450.0

>  <std_unit>
nM

>  <target_id>
CHEMBL2016

>  <target_name>
Coagulation factor IX

>  <organism>
Homo sapiens

>  <target_type>
SINGLE PROTEIN

$$$$

  Mrv0541 08052111042D          

 36 40  0  0  0  0            999 V2000
    4.2010   -5.1401    0.0000 N   0  0  0  0  0  0  0  0  0  0  0  0
    3.3760   -5.1401    0.0000 C   0  0  0  0  0  0  0  0  0  0  0  0
    2.9635   -4.4256    0.0000 N   0  0  0  0  0  0  0  0  0  0  0  0
    2.9635   -5.8546    0.0000 C   0  0  0  0  0  0  0  0  0  0  0  0
    3.3760   -6.5690    0.0000 C   0  0  0  0  0  0  0  0  0  0  0  0
    2.9635   -7.2835    0.0000 C   0  0  0  0  0  0  0  0  0  0  0  0
    2.1385   -7.2835    0.0000 C   0  0  0  0  0  0  0  0  0  0  0  0
    1.7260   -6.5690    0.0000 C   0  0  0  0  0  0  0  0  0  0  0  0
    0.9010   -6.5690    0.0000 N   0  0  0  0  0  0  0  0  0  0  0  0
    0.4161   -7.2365    0.0000 N   0  0  0  0  0  0  0  0  0  0  0  0
   -0.3686   -6.9815    0.0000 C   0  0  0  0  0  0  0  0  0  0  0  0
   -1.0360   -7.4664    0.0000 C   0  0  0  0  0  0  0  0  0  0  0  0
   -1.7034   -7.9514    0.0000 F   0  0  0  0  0  0  0  0  0  0  0  0
   -1.5209   -6.7990    0.0000 F   0  0  0  0  0  0  0  0  0  0  0  0
   -0.5511   -8.1339    0.0000 F   0  0  0  0  0  0  0  0  0  0  0  0
   -0.3686   -6.1565    0.0000 C   0  0  0  0  0  0  0  0  0  0  0  0
    0.4161   -5.9016    0.0000 C   0  0  0  0  0  0  0  0  0  0  0  0
    0.6710   -5.1170    0.0000 C   0  0  0  0  0  0  0  0  0  0  0  0
    1.4780   -4.9454    0.0000 O   0  0  0  0  0  0  0  0  0  0  0  0
    0.1190   -4.5039    0.0000 N   0  0  0  0  0  0  0  0  0  0  0  0
    0.3739   -3.7192    0.0000 C   0  0  0  0  0  0  0  0  0  0  0  0
   -0.1781   -3.1062    0.0000 C   0  0  0  0  0  0  0  0  0  0  0  0
    0.0768   -2.3215    0.0000 C   0  0  0  0  0  0  0  0  0  0  0  0
    0.8838   -2.1500    0.0000 C   0  0  0  0  0  0  0  0  0  0  0  0
    1.1387   -1.3654    0.0000 N   0  0  0  0  0  0  0  0  0  0  0  0
    0.6538   -0.6979    0.0000 C   0  0  0  0  0  0  0  0  0  0  0  0
    1.1387   -0.0305    0.0000 N   0  0  0  0  0  0  0  0  0  0  0  0
    1.9233   -0.2854    0.0000 C   0  0  0  0  0  0  0  0  0  0  0  0
    2.6378    0.1271    0.0000 C   0  0  0  0  0  0  0  0  0  0  0  0
    3.3523   -0.2854    0.0000 C   0  0  0  0  0  0  0  0  0  0  0  0
    3.3523   -1.1104    0.0000 C   0  0  0  0  0  0  0  0  0  0  0  0
    2.6378   -1.5229    0.0000 C   0  0  0  0  0  0  0  0  0  0  0  0
    1.9233   -1.1104    0.0000 C   0  0  0  0  0  0  0  0  0  0  0  0
    1.4358   -2.7631    0.0000 C   0  0  0  0  0  0  0  0  0  0  0  0
    1.1809   -3.5477    0.0000 C   0  0  0  0  0  0  0  0  0  0  0  0
    2.1385   -5.8546    0.0000 C   0  0  0  0  0  0  0  0  0  0  0  0
  1  2  2  0  0  0  0
  2  3  1  0  0  0  0
  2  4  1  0  0  0  0
  4  5  4  0  0  0  0
  5  6  4  0  0  0  0
  6  7  4  0  0  0  0
  7  8  4  0  0  0  0
  8  9  1  0  0  0  0
  9 10  4  0  0  0  0
 10 11  4  0  0  0  0
 11 12  1  0  0  0  0
 12 13  1  0  0  0  0
 12 14  1  0  0  0  0
 12 15  1  0  0  0  0
 11 16  4  0  0  0  0
 16 17  4  0  0  0  0
  9 17  4  0  0  0  0
 17 18  1  0  0  0  0
 18 19  2  0  0  0  0
 18 20  1  0  0  0  0
 20 21  1  0  0  0  0
 21 22  4  0  0  0  0
 22 23  4  0  0  0  0
 23 24  4  0  0  0  0
 24 25  1  0  0  0  0
 25 26  4  0  0  0  0
 26 27  4  0  0  0  0
 27 28  4  0  0  0  0
 28 29  4  0  0  0  0
 29 30  4  0  0  0  0
 30 31  4  0  0  0  0
 31 32  4  0  0  0  0
 32 33  4  0  0  0  0
 28 33  4  0  0  0  0
 25 33  4  0  0  0  0
 24 34  4  0  0  0  0
 34 35  4  0  0  0  0
 21 35  4  0  0  0  0
  8 36  4  0  0  0  0
  4 36  4  0  0  0  0
M  END
>  <CdId>
358285

>  <Mol Weight>
489.4519

>  <Formula>
C25H18F3N7O

>  <cmpd_chemblid>
CHEMBL186831

>  <std_type>
Ki

>  <std_value>
11.0

>  <std_unit>
nM

>  <target_id>
CHEMBL2016

>  <target_name>
Coagulation factor IX

>  <organism>
Homo sapiens

>  <target_type>
SINGLE PROTEIN

$$$$

  Mrv0541 08052111042D          

 37 41  0  0  1  0            999 V2000
    3.9849    3.9849    0.0000 C   0  0  0  0  0  0  0  0  0  0  0  0
    4.3974    3.2704    0.0000 C   0  0  2  0  0  0  0  0  0  0  0  0
    5.2224    3.2704    0.0000 C   0  0  0  0  0  0  0  0  0  0  0  0
    5.6349    2.5559    0.0000 C   0  0  0  0  0  0  0  0  0  0  0  0
    6.4599    2.5559    0.0000 C   0  0  0  0  0  0  0  0  0  0  0  0
    6.8724    1.8414    0.0000 C   0  0  2  0  0  0  0  0  0  0  0  0
    7.6974    1.8414    0.0000 N   0  0  0  0  0  0  0  0  0  0  0  0
    8.1099    2.5559    0.0000 C   0  0  0  0  0  0  0  0  0  0  0  0
    8.9349    2.5559    0.0000 C   0  0  0  0  0  0  0  0  0  0  0  0
    9.3474    1.8414    0.0000 C   0  0  0  0  0  0  0  0  0  0  0  0
   10.1724    1.8414    0.0000 C   0  0  0  0  0  0  0  0  0  0  0  0
   10.5849    2.5559    0.0000 C   0  0  0  0  0  0  0  0  0  0  0  0
   10.1724    3.2704    0.0000 N   0  0  0  0  0  0  0  0  0  0  0  0
   11.4099    2.5559    0.0000 C   0  0  0  0  0  0  0  0  0  0  0  0
   11.8224    1.8414    0.0000 C   0  0  0  0  0  0  0  0  0  0  0  0
   11.4099    1.1270    0.0000 C   0  0  0  0  0  0  0  0  0  0  0  0
   11.8224    0.4125    0.0000 Cl  0  0  0  0  0  0  0  0  0  0  0  0
   10.5849    1.1270    0.0000 C   0  0  0  0  0  0  0  0  0  0  0  0
   10.1724    0.4125    0.0000 F   0  0  0  0  0  0  0  0  0  0  0  0
    8.9349    1.1270    0.0000 C   0  0  0  0  0  0  0  0  0  0  0  0
    8.1099    1.1270    0.0000 C   0  0  0  0  0  0  0  0  0  0  0  0
    7.6974    0.4125    0.0000 O   0  0  0  0  0  0  0  0  0  0  0  0
    6.4599    1.1270    0.0000 C   0  0  0  0  0  0  0  0  0  0  0  0
    5.6349    1.1270    0.0000 C   0  0  0  0  0  0  0  0  0  0  0  0
    5.2224    0.4125    0.0000 C   0  0  0  0  0  0  0  0  0  0  0  0
    5.6349   -0.3020    0.0000 C   0  0  0  0  0  0  0  0  0  0  0  0
    6.4599   -0.3020    0.0000 C   0  0  0  0  0  0  0  0  0  0  0  0
    6.8724    0.4125    0.0000 N   0  0  0  0  0  0  0  0  0  0  0  0
    4.3974    0.4125    0.0000 C   0  0  0  0  0  0  0  0  0  0  0  0
    3.9849   -0.3020    0.0000 C   0  0  0  0  0  0  0  0  0  0  0  0
    3.1599   -0.3020    0.0000 C   0  0  0  0  0  0  0  0  0  0  0  0
    2.7474    0.4125    0.0000 C   0  0  0  0  0  0  0  0  0  0  0  0
    3.1599    1.1270    0.0000 C   0  0  0  0  0  0  0  0  0  0  0  0
    3.9849    1.1270    0.0000 C   0  0  0  0  0  0  0  0  0  0  0  0
    4.3974    1.8414    0.0000 N   0  0  0  0  0  0  0  0  0  0  0  0
    3.9849    2.5559    0.0000 C   0  0  0  0  0  0  0  0  0  0  0  0
    3.1599    2.5559    0.0000 O   0  0  0  0  0  0  0  0  0  0  0  0
  2  1  1  6  0  0  0
  2  3  1  0  0  0  0
  3  4  1  0  0  0  0
  4  5  1  0  0  0  0
  5  6  1  0  0  0  0
  6  7  1  6  0  0  0
  7  8  1  0  0  0  0
  8  9  1  0  0  0  0
  9 10  1  0  0  0  0
 10 11  1  0  0  0  0
 11 12  4  0  0  0  0
 12 13  1  0  0  0  0
 12 14  4  0  0  0  0
 14 15  4  0  0  0  0
 15 16  4  0  0  0  0
 16 17  1  0  0  0  0
 16 18  4  0  0  0  0
 11 18  4  0  0  0  0
 18 19  1  0  0  0  0
 10 20  2  0  0  0  0
 20 21  1  0  0  0  0
  7 21  1  0  0  0  0
 21 22  2  0  0  0  0
  6 23  1  0  0  0  0
 23 24  4  0  0  0  0
 24 25  4  0  0  0  0
 25 26  4  0  0  0  0
 26 27  4  0  0  0  0
 27 28  4  0  0  0  0
 23 28  4  0  0  0  0
 25 29  1  0  0  0  0
 29 30  4  0  0  0  0
 30 31  4  0  0  0  0
 31 32  4  0  0  0  0
 32 33  4  0  0  0  0
 33 34  4  0  0  0  0
 29 34  4  0  0  0  0
 34 35  1  0  0  0  0
 35 36  1  0  0  0  0
  2 36  1  0  0  0  0
 36 37  2  0  0  0  0
M  END
>  <CdId>
358286

>  <Mol Weight>
519.01

>  <Formula>
C29H28ClFN4O2

>  <cmpd_chemblid>
CHEMBL4108320

>  <std_type>
Ki

>  <std_value>
66.6

>  <std_unit>
nM

>  <target_id>
CHEMBL2016

>  <target_name>
Coagulation factor IX

>  <organism>
Homo sapiens

>  <target_type>
SINGLE PROTEIN

$$$$

  Mrv0541 08052111042D          

 44 48  0  0  1  0            999 V2000
    8.6329   -2.2539    0.0000 C   0  0  0  0  0  0  0  0  0  0  0  0
    8.2204   -1.5395    0.0000 O   0  0  0  0  0  0  0  0  0  0  0  0
    7.3954   -1.5395    0.0000 C   0  0  0  0  0  0  0  0  0  0  0  0
    6.9829   -2.2539    0.0000 O   0  0  0  0  0  0  0  0  0  0  0  0
    6.9829   -0.8250    0.0000 N   0  0  0  0  0  0  0  0  0  0  0  0
    6.1579   -0.8250    0.0000 C   0  0  0  0  0  0  0  0  0  0  0  0
    5.7454   -0.1105    0.0000 C   0  0  0  0  0  0  0  0  0  0  0  0
    4.9204   -0.1105    0.0000 C   0  0  0  0  0  0  0  0  0  0  0  0
    4.5079   -0.8250    0.0000 C   0  0  0  0  0  0  0  0  0  0  0  0
    4.9204   -1.5395    0.0000 C   0  0  0  0  0  0  0  0  0  0  0  0
    5.7454   -1.5395    0.0000 C   0  0  0  0  0  0  0  0  0  0  0  0
    4.5079   -2.2539    0.0000 N   0  0  0  0  0  0  0  0  0  0  0  0
    4.9204   -2.9684    0.0000 C   0  0  0  0  0  0  0  0  0  0  0  0
    5.7454   -2.9684    0.0000 O   0  0  0  0  0  0  0  0  0  0  0  0
    4.5079   -3.6829    0.0000 C   0  0  2  0  0  0  0  0  0  0  0  0
    4.9204   -4.3974    0.0000 C   0  0  0  0  0  0  0  0  0  0  0  0
    3.6829   -3.6829    0.0000 C   0  0  0  0  0  0  0  0  0  0  0  0
    3.2704   -2.9684    0.0000 C   0  0  0  0  0  0  0  0  0  0  0  0
    2.4454   -2.9684    0.0000 C   0  0  0  0  0  0  0  0  0  0  0  0
    2.0329   -2.2539    0.0000 C   0  0  2  0  0  0  0  0  0  0  0  0
    1.2079   -2.2539    0.0000 N   0  0  0  0  0  0  0  0  0  0  0  0
    0.7954   -2.9684    0.0000 C   0  0  0  0  0  0  0  0  0  0  0  0
   -0.0296   -2.9684    0.0000 C   0  0  0  0  0  0  0  0  0  0  0  0
   -0.4421   -2.2539    0.0000 C   0  0  0  0  0  0  0  0  0  0  0  0
   -1.2671   -2.2539    0.0000 C   0  0  0  0  0  0  0  0  0  0  0  0
   -1.6796   -2.9684    0.0000 N   0  0  0  0  0  0  0  0  0  0  0  0
   -2.5046   -2.9684    0.0000 C   0  0  0  0  0  0  0  0  0  0  0  0
   -2.9171   -2.2539    0.0000 C   0  0  0  0  0  0  0  0  0  0  0  0
   -2.5046   -1.5395    0.0000 C   0  0  0  0  0  0  0  0  0  0  0  0
   -2.9171   -0.8250    0.0000 Cl  0  0  0  0  0  0  0  0  0  0  0  0
   -1.6796   -1.5395    0.0000 C   0  0  0  0  0  0  0  0  0  0  0  0
   -1.2671   -0.8250    0.0000 O   0  0  0  0  0  0  0  0  0  0  0  0
   -0.4421   -0.8250    0.0000 C   0  0  0  0  0  0  0  0  0  0  0  0
   -0.0296   -1.5395    0.0000 C   0  0  0  0  0  0  0  0  0  0  0  0
    0.7954   -1.5395    0.0000 C   0  0  0  0  0  0  0  0  0  0  0  0
    1.2079   -0.8250    0.0000 O   0  0  0  0  0  0  0  0  0  0  0  0
    2.4454   -1.5395    0.0000 C   0  0  0  0  0  0  0  0  0  0  0  0
    3.2704   -1.5395    0.0000 C   0  0  0  0  0  0  0  0  0  0  0  0
    3.6829   -0.8250    0.0000 C   0  0  0  0  0  0  0  0  0  0  0  0
    3.2704   -0.1105    0.0000 C   0  0  0  0  0  0  0  0  0  0  0  0
    2.4454   -0.1105    0.0000 C   0  0  0  0  0  0  0  0  0  0  0  0
    2.0329    0.6039    0.0000 O   0  0  0  0  0  0  0  0  0  0  0  0
    1.2079    0.6039    0.0000 C   0  0  0  0  0  0  0  0  0  0  0  0
    2.0329   -0.8250    0.0000 N   0  0  0  0  0  0  0  0  0  0  0  0
  1  2  1  0  0  0  0
  2  3  1  0  0  0  0
  3  4  2  0  0  0  0
  3  5  1  0  0  0  0
  5  6  1  0  0  0  0
  6  7  4  0  0  0  0
  7  8  4  0  0  0  0
  8  9  4  0  0  0  0
  9 10  4  0  0  0  0
 10 11  4  0  0  0  0
  6 11  4  0  0  0  0
 10 12  1  0  0  0  0
 12 13  1  0  0  0  0
 13 14  2  0  0  0  0
 13 15  1  0  0  0  0
 15 16  1  6  0  0  0
 15 17  1  0  0  0  0
 17 18  1  0  0  0  0
 18 19  1  0  0  0  0
 19 20  1  0  0  0  0
 20 21  1  6  0  0  0
 21 22  1  0  0  0  0
 22 23  1  0  0  0  0
 23 24  1  0  0  0  0
 24 25  1  0  0  0  0
 25 26  4  0  0  0  0
 26 27  4  0  0  0  0
 27 28  4  0  0  0  0
 28 29  4  0  0  0  0
 29 30  1  0  0  0  0
 29 31  4  0  0  0  0
 25 31  4  0  0  0  0
 31 32  1  0  0  0  0
 32 33  1  0  0  0  0
 24 34  2  0  0  0  0
 34 35  1  0  0  0  0
 21 35  1  0  0  0  0
 35 36  2  0  0  0  0
 20 37  1  0  0  0  0
 37 38  4  0  0  0  0
 38 39  4  0  0  0  0
  9 39  1  0  0  0  0
 39 40  4  0  0  0  0
 40 41  4  0  0  0  0
 41 42  1  0  0  0  0
 42 43  1  0  0  0  0
 41 44  4  0  0  0  0
 37 44  4  0  0  0  0
M  END
>  <CdId>
358287

>  <Mol Weight>
620.095

>  <Formula>
C32H34ClN5O6

>  <cmpd_chemblid>
CHEMBL4113877

>  <std_type>
Ki

>  <std_value>
158.4

>  <std_unit>
nM

>  <target_id>
CHEMBL2016

>  <target_name>
Coagulation factor IX

>  <organism>
Homo sapiens

>  <target_type>
SINGLE PROTEIN

$$$$

  Mrv0541 08052111042D          

 39 42  0  0  0  0            999 V2000
    2.9001   -1.7797    0.0000 N   0  0  0  0  0  0  0  0  0  0  0  0
    2.1856   -1.3672    0.0000 C   0  0  0  0  0  0  0  0  0  0  0  0
    2.1856   -0.5422    0.0000 N   0  0  0  0  0  0  0  0  0  0  0  0
    1.4711   -1.7797    0.0000 C   0  0  0  0  0  0  0  0  0  0  0  0
    1.4711   -2.6047    0.0000 C   0  0  0  0  0  0  0  0  0  0  0  0
    0.7566   -3.0172    0.0000 C   0  0  0  0  0  0  0  0  0  0  0  0
    0.0422   -2.6047    0.0000 C   0  0  0  0  0  0  0  0  0  0  0  0
   -0.7424   -2.8597    0.0000 S   0  0  0  0  0  0  0  0  0  0  0  0
   -1.2274   -2.1922    0.0000 C   0  0  0  0  0  0  0  0  0  0  0  0
   -0.7424   -1.5248    0.0000 C   0  0  0  0  0  0  0  0  0  0  0  0
   -0.9974   -0.7402    0.0000 C   0  0  0  0  0  0  0  0  0  0  0  0
   -1.8044   -0.5687    0.0000 C   0  0  0  0  0  0  0  0  0  0  0  0
   -2.0593    0.2160    0.0000 C   0  0  0  0  0  0  0  0  0  0  0  0
   -2.8663    0.3875    0.0000 C   0  0  0  0  0  0  0  0  0  0  0  0
   -3.1212    1.1721    0.0000 C   0  0  0  0  0  0  0  0  0  0  0  0
   -2.5692    1.7852    0.0000 C   0  0  0  0  0  0  0  0  0  0  0  0
   -1.7622    1.6137    0.0000 C   0  0  0  0  0  0  0  0  0  0  0  0
   -1.5073    0.8291    0.0000 C   0  0  0  0  0  0  0  0  0  0  0  0
   -0.4454   -0.1271    0.0000 C   0  0  0  0  0  0  0  0  0  0  0  0
    0.3616   -0.2986    0.0000 O   0  0  0  0  0  0  0  0  0  0  0  0
   -0.7003    0.6575    0.0000 N   0  0  0  0  0  0  0  0  0  0  0  0
   -0.1483    1.2706    0.0000 C   0  0  0  0  0  0  0  0  0  0  0  0
   -0.4032    2.0552    0.0000 C   0  0  0  0  0  0  0  0  0  0  0  0
    0.1488    2.6683    0.0000 C   0  0  0  0  0  0  0  0  0  0  0  0
    0.9558    2.4968    0.0000 C   0  0  0  0  0  0  0  0  0  0  0  0
    1.6232    2.9817    0.0000 N   0  0  0  0  0  0  0  0  0  0  0  0
    2.2907    2.4968    0.0000 C   0  0  0  0  0  0  0  0  0  0  0  0
    2.0357    1.7122    0.0000 S   0  0  0  0  0  0  0  0  0  0  0  0
    1.2107    1.7122    0.0000 C   0  0  0  0  0  0  0  0  0  0  0  0
    0.6587    1.0991    0.0000 C   0  0  0  0  0  0  0  0  0  0  0  0
    0.0422   -1.7797    0.0000 C   0  0  0  0  0  0  0  0  0  0  0  0
    0.7566   -1.3672    0.0000 C   0  0  0  0  0  0  0  0  0  0  0  0
    5.0142   -0.8839    0.0000 O   0  0  0  0  0  0  0  0  0  0  0  0
    5.7286   -0.4714    0.0000 C   0  0  0  0  0  0  0  0  0  0  0  0
    6.4431   -0.8839    0.0000 O   0  0  0  0  0  0  0  0  0  0  0  0
    5.7286    0.3536    0.0000 C   0  0  0  0  0  0  0  0  0  0  0  0
    5.7286    1.1786    0.0000 F   0  0  0  0  0  0  0  0  0  0  0  0
    6.5536    0.3536    0.0000 F   0  0  0  0  0  0  0  0  0  0  0  0
    4.9036    0.3536    0.0000 F   0  0  0  0  0  0  0  0  0  0  0  0
  1  2  2  0  0  0  0
  2  3  1  0  0  0  0
  2  4  1  0  0  0  0
  4  5  4  0  0  0  0
  5  6  4  0  0  0  0
  6  7  4  0  0  0  0
  7  8  4  0  0  0  0
  8  9  4  0  0  0  0
  9 10  4  0  0  0  0
 10 11  1  0  0  0  0
 11 12  1  0  0  0  0
 12 13  1  0  0  0  0
 13 14  4  0  0  0  0
 14 15  4  0  0  0  0
 15 16  4  0  0  0  0
 16 17  4  0  0  0  0
 17 18  4  0  0  0  0
 13 18  4  0  0  0  0
 11 19  1  0  0  0  0
 19 20  2  0  0  0  0
 19 21  1  0  0  0  0
 21 22  1  0  0  0  0
 22 23  4  0  0  0  0
 23 24  4  0  0  0  0
 24 25  4  0  0  0  0
 25 26  4  0  0  0  0
 26 27  4  0  0  0  0
 27 28  4  0  0  0  0
 28 29  4  0  0  0  0
 25 29  4  0  0  0  0
 29 30  4  0  0  0  0
 22 30  4  0  0  0  0
 10 31  4  0  0  0  0
  7 31  4  0  0  0  0
 31 32  4  0  0  0  0
  4 32  4  0  0  0  0
 33 34  2  0  0  0  0
 34 35  1  0  0  0  0
 34 36  1  0  0  0  0
 36 37  1  0  0  0  0
 36 38  1  0  0  0  0
 36 39  1  0  0  0  0
M  END
>  <CdId>
358288

>  <Mol Weight>
570.606

>  <Formula>
C27H21F3N4O3S2

>  <cmpd_chemblid>
CHEMBL182736

>  <std_type>
Ki

>  <std_value>
780.0

>  <std_unit>
nM

>  <target_id>
CHEMBL2016

>  <target_name>
Coagulation factor IX

>  <organism>
Homo sapiens

>  <target_type>
SINGLE PROTEIN

$$$$

  Mrv0541 08052111042D          

 38 43  0  0  1  0            999 V2000
    4.7674    0.7556    0.0000 C   0  0  0  0  0  0  0  0  0  0  0  0
    3.9604    0.5840    0.0000 C   0  0  0  0  0  0  0  0  0  0  0  0
    3.7054   -0.2006    0.0000 C   0  0  0  0  0  0  0  0  0  0  0  0
    2.8985   -0.3721    0.0000 C   0  0  0  0  0  0  0  0  0  0  0  0
    2.3464    0.2410    0.0000 C   0  0  0  0  0  0  0  0  0  0  0  0
    2.6014    1.0256    0.0000 C   0  0  0  0  0  0  0  0  0  0  0  0
    3.4084    1.1971    0.0000 C   0  0  0  0  0  0  0  0  0  0  0  0
    1.9339    1.5105    0.0000 C   0  0  0  0  0  0  0  0  0  0  0  0
    1.9339    2.3355    0.0000 C   0  0  0  0  0  0  0  0  0  0  0  0
    1.2195    2.7480    0.0000 O   0  0  0  0  0  0  0  0  0  0  0  0
    2.6484    2.7480    0.0000 O   0  0  0  0  0  0  0  0  0  0  0  0
    1.2665    1.0256    0.0000 C   0  0  0  0  0  0  0  0  0  0  0  0
    1.5214    0.2410    0.0000 N   0  0  0  0  0  0  0  0  0  0  0  0
    0.9694   -0.3721    0.0000 C   0  0  0  0  0  0  0  0  0  0  0  0
    0.1624   -0.2006    0.0000 C   0  0  1  0  0  0  0  0  0  0  0  0
    0.1336   -1.0251    0.0000 N   0  0  0  0  0  0  0  0  0  0  0  0
    0.8333   -1.4623    0.0000 C   0  0  0  0  0  0  0  0  0  0  0  0
    1.5617   -1.0750    0.0000 O   0  0  0  0  0  0  0  0  0  0  0  0
    0.8045   -2.2868    0.0000 C   0  0  0  0  0  0  0  0  0  0  0  0
    1.5041   -2.7240    0.0000 N   0  0  0  0  0  0  0  0  0  0  0  0
    1.4753   -3.5485    0.0000 C   0  0  0  0  0  0  0  0  0  0  0  0
    0.7469   -3.9358    0.0000 C   0  0  0  0  0  0  0  0  0  0  0  0
    0.7181   -4.7603    0.0000 N   0  0  0  0  0  0  0  0  0  0  0  0
    1.3682   -5.2682    0.0000 C   0  0  0  0  0  0  0  0  0  0  0  0
    1.0861   -6.0434    0.0000 N   0  0  0  0  0  0  0  0  0  0  0  0
    0.2616   -6.0146    0.0000 N   0  0  0  0  0  0  0  0  0  0  0  0
    0.0342   -5.2216    0.0000 C   0  0  0  0  0  0  0  0  0  0  0  0
    0.0473   -3.4986    0.0000 C   0  0  0  0  0  0  0  0  0  0  0  0
    0.0761   -2.6741    0.0000 C   0  0  0  0  0  0  0  0  0  0  0  0
   -0.6236   -2.2369    0.0000 Cl  0  0  0  0  0  0  0  0  0  0  0  0
   -0.6545   -0.3154    0.0000 C   0  0  0  0  0  0  0  0  0  0  0  0
   -0.9636   -1.0803    0.0000 C   0  0  0  0  0  0  0  0  0  0  0  0
   -1.7806   -1.1952    0.0000 C   0  0  0  0  0  0  0  0  0  0  0  0
   -2.2885   -0.5450    0.0000 C   0  0  0  0  0  0  0  0  0  0  0  0
   -1.9794    0.2199    0.0000 C   0  0  0  0  0  0  0  0  0  0  0  0
   -1.1625    0.3347    0.0000 C   0  0  0  0  0  0  0  0  0  0  0  0
   -0.0925    0.5840    0.0000 C   0  0  0  0  0  0  0  0  0  0  0  0
    0.4595    1.1971    0.0000 C   0  0  0  0  0  0  0  0  0  0  0  0
  1  2  1  0  0  0  0
  2  3  4  0  0  0  0
  3  4  4  0  0  0  0
  4  5  4  0  0  0  0
  5  6  4  0  0  0  0
  6  7  4  0  0  0  0
  2  7  4  0  0  0  0
  6  8  4  0  0  0  0
  8  9  1  0  0  0  0
  9 10  2  0  0  0  0
  9 11  1  0  0  0  0
  8 12  4  0  0  0  0
 12 13  4  0  0  0  0
  5 13  4  0  0  0  0
 13 14  1  0  0  0  0
 14 15  1  0  0  0  0
 15 16  1  6  0  0  0
 16 17  1  0  0  0  0
 17 18  2  0  0  0  0
 17 19  1  0  0  0  0
 19 20  4  0  0  0  0
 20 21  4  0  0  0  0
 21 22  4  0  0  0  0
 22 23  1  0  0  0  0
 23 24  4  0  0  0  0
 24 25  4  0  0  0  0
 25 26  4  0  0  0  0
 26 27  4  0  0  0  0
 23 27  4  0  0  0  0
 22 28  4  0  0  0  0
 28 29  4  0  0  0  0
 19 29  4  0  0  0  0
 29 30  1  0  0  0  0
 15 31  1  1  0  0  0
 31 32  4  0  0  0  0
 32 33  4  0  0  0  0
 33 34  4  0  0  0  0
 34 35  4  0  0  0  0
 35 36  4  0  0  0  0
 31 36  4  0  0  0  0
 15 37  1  0  0  0  0
 37 38  1  0  0  0  0
 12 38  1  0  0  0  0
M  END
>  <CdId>
358289

>  <Mol Weight>
526.974

>  <Formula>
C28H23ClN6O3

>  <cmpd_chemblid>
CHEMBL3629112

>  <std_type>
Ki

>  <std_value>
2.5

>  <std_unit>
nM

>  <target_id>
CHEMBL2016

>  <target_name>
Coagulation factor IX

>  <organism>
Homo sapiens

>  <target_type>
SINGLE PROTEIN

$$$$

  Mrv0541 08052111042D          

 39 44  0  0  1  0            999 V2000
    3.6017    3.9187    0.0000 C   0  0  0  0  0  0  0  0  0  0  0  0
    4.0363    3.2175    0.0000 C   0  0  2  0  0  0  0  0  0  0  0  0
    4.8609    3.2432    0.0000 C   0  0  0  0  0  0  0  0  0  0  0  0
    5.2955    2.5420    0.0000 C   0  0  0  0  0  0  0  0  0  0  0  0
    6.1201    2.5677    0.0000 C   0  0  0  0  0  0  0  0  0  0  0  0
    6.5547    1.8665    0.0000 C   0  0  2  0  0  0  0  0  0  0  0  0
    7.3793    1.8923    0.0000 N   0  0  0  0  0  0  0  0  0  0  0  0
    7.7693    2.6193    0.0000 C   0  0  0  0  0  0  0  0  0  0  0  0
    8.5939    2.6450    0.0000 C   0  0  0  0  0  0  0  0  0  0  0  0
    9.0285    1.9438    0.0000 C   0  0  0  0  0  0  0  0  0  0  0  0
    9.8531    1.9696    0.0000 C   0  0  0  0  0  0  0  0  0  0  0  0
   10.2431    2.6966    0.0000 C   0  0  0  0  0  0  0  0  0  0  0  0
    9.8085    3.3978    0.0000 F   0  0  0  0  0  0  0  0  0  0  0  0
   11.0677    2.7223    0.0000 C   0  0  0  0  0  0  0  0  0  0  0  0
   11.5023    2.0211    0.0000 C   0  0  0  0  0  0  0  0  0  0  0  0
   11.1123    1.2941    0.0000 C   0  0  0  0  0  0  0  0  0  0  0  0
   11.5469    0.5928    0.0000 Cl  0  0  0  0  0  0  0  0  0  0  0  0
   10.2877    1.2683    0.0000 C   0  0  0  0  0  0  0  0  0  0  0  0
    9.8977    0.5413    0.0000 F   0  0  0  0  0  0  0  0  0  0  0  0
    8.6385    1.2168    0.0000 C   0  0  0  0  0  0  0  0  0  0  0  0
    7.8139    1.1910    0.0000 C   0  0  0  0  0  0  0  0  0  0  0  0
    7.4239    0.4640    0.0000 O   0  0  0  0  0  0  0  0  0  0  0  0
    6.1647    1.1395    0.0000 C   0  0  0  0  0  0  0  0  0  0  0  0
    5.3401    1.1137    0.0000 C   0  0  0  0  0  0  0  0  0  0  0  0
    4.9501    0.3867    0.0000 C   0  0  0  0  0  0  0  0  0  0  0  0
    5.3847   -0.3145    0.0000 C   0  0  0  0  0  0  0  0  0  0  0  0
    6.2093   -0.2887    0.0000 C   0  0  0  0  0  0  0  0  0  0  0  0
    6.5993    0.4383    0.0000 N   0  0  0  0  0  0  0  0  0  0  0  0
    4.1255    0.3610    0.0000 N   0  0  0  0  0  0  0  0  0  0  0  0
    3.5929   -0.2691    0.0000 N   0  0  0  0  0  0  0  0  0  0  0  0
    2.8291    0.0428    0.0000 C   0  0  0  0  0  0  0  0  0  0  0  0
    2.1279   -0.3918    0.0000 C   0  0  0  0  0  0  0  0  0  0  0  0
    1.7379   -1.1188    0.0000 C   0  0  0  0  0  0  0  0  0  0  0  0
    1.3033   -0.4176    0.0000 C   0  0  0  0  0  0  0  0  0  0  0  0
    2.8897    0.8656    0.0000 C   0  0  0  0  0  0  0  0  0  0  0  0
    3.6909    1.0622    0.0000 C   0  0  0  0  0  0  0  0  0  0  0  0
    4.0809    1.7892    0.0000 N   0  0  0  0  0  0  0  0  0  0  0  0
    3.6463    2.4905    0.0000 C   0  0  0  0  0  0  0  0  0  0  0  0
    2.8217    2.4647    0.0000 O   0  0  0  0  0  0  0  0  0  0  0  0
  2  1  1  6  0  0  0
  2  3  1  0  0  0  0
  3  4  1  0  0  0  0
  4  5  1  0  0  0  0
  5  6  1  0  0  0  0
  6  7  1  6  0  0  0
  7  8  1  0  0  0  0
  8  9  1  0  0  0  0
  9 10  1  0  0  0  0
 10 11  1  0  0  0  0
 11 12  4  0  0  0  0
 12 13  1  0  0  0  0
 12 14  4  0  0  0  0
 14 15  4  0  0  0  0
 15 16  4  0  0  0  0
 16 17  1  0  0  0  0
 16 18  4  0  0  0  0
 11 18  4  0  0  0  0
 18 19  1  0  0  0  0
 10 20  2  0  0  0  0
 20 21  1  0  0  0  0
  7 21  1  0  0  0  0
 21 22  2  0  0  0  0
  6 23  1  0  0  0  0
 23 24  4  0  0  0  0
 24 25  4  0  0  0  0
 25 26  4  0  0  0  0
 26 27  4  0  0  0  0
 27 28  4  0  0  0  0
 23 28  4  0  0  0  0
 25 29  1  0  0  0  0
 29 30  4  0  0  0  0
 30 31  4  0  0  0  0
 31 32  1  0  0  0  0
 32 33  1  0  0  0  0
 33 34  1  0  0  0  0
 32 34  1  0  0  0  0
 31 35  4  0  0  0  0
 35 36  4  0  0  0  0
 29 36  4  0  0  0  0
 36 37  1  0  0  0  0
 37 38  1  0  0  0  0
  2 38  1  0  0  0  0
 38 39  2  0  0  0  0
M  END
>  <CdId>
358290

>  <Mol Weight>
552.015

>  <Formula>
C29H28ClF2N5O2

>  <cmpd_chemblid>
CHEMBL4107466

>  <std_type>
Ki

>  <std_value>
301.9

>  <std_unit>
nM

>  <target_id>
CHEMBL2016

>  <target_name>
Coagulation factor IX

>  <organism>
Homo sapiens

>  <target_type>
SINGLE PROTEIN

$$$$

  Mrv0541 08052111042D          

 36 40  0  0  1  0            999 V2000
   10.2968    5.3311    0.0000 C   0  0  0  0  0  0  0  0  0  0  0  0
    9.9613    4.5775    0.0000 C   0  0  0  0  0  0  0  0  0  0  0  0
   10.3738    3.8630    0.0000 N   0  0  0  0  0  0  0  0  0  0  0  0
    9.8217    3.2499    0.0000 C   0  0  0  0  0  0  0  0  0  0  0  0
    9.0681    3.5854    0.0000 N   0  0  0  0  0  0  0  0  0  0  0  0
    8.3536    3.1729    0.0000 C   0  0  0  0  0  0  0  0  0  0  0  0
    8.3536    2.3479    0.0000 C   0  0  0  0  0  0  0  0  0  0  0  0
    7.6391    1.9354    0.0000 C   0  0  0  0  0  0  0  0  0  0  0  0
    7.6391    1.1104    0.0000 Cl  0  0  0  0  0  0  0  0  0  0  0  0
    6.9246    2.3479    0.0000 C   0  0  0  0  0  0  0  0  0  0  0  0
    6.2102    1.9354    0.0000 C   0  0  0  0  0  0  0  0  0  0  0  0
    6.2102    1.1104    0.0000 O   0  0  0  0  0  0  0  0  0  0  0  0
    5.4957    2.3479    0.0000 N   0  0  0  0  0  0  0  0  0  0  0  0
    4.7812    1.9354    0.0000 C   0  0  0  0  0  0  0  0  0  0  0  0
    4.0668    2.3479    0.0000 C   0  0  1  0  0  0  0  0  0  0  0  0
    4.0668    3.1729    0.0000 C   0  0  0  0  0  0  0  0  0  0  0  0
    3.3523    3.5854    0.0000 C   0  0  0  0  0  0  0  0  0  0  0  0
    3.3523    4.4104    0.0000 C   0  0  0  0  0  0  0  0  0  0  0  0
    4.0668    4.8229    0.0000 C   0  0  0  0  0  0  0  0  0  0  0  0
    4.7812    4.4104    0.0000 C   0  0  0  0  0  0  0  0  0  0  0  0
    5.4957    4.8229    0.0000 F   0  0  0  0  0  0  0  0  0  0  0  0
    4.7812    3.5854    0.0000 C   0  0  0  0  0  0  0  0  0  0  0  0
    3.3523    1.9354    0.0000 C   0  0  0  0  0  0  0  0  0  0  0  0
    3.3523    1.1104    0.0000 C   0  0  0  0  0  0  0  0  0  0  0  0
    2.6378    0.6979    0.0000 C   0  0  0  0  0  0  0  0  0  0  0  0
    1.9233    1.1104    0.0000 C   0  0  0  0  0  0  0  0  0  0  0  0
    1.1387    0.8555    0.0000 N   0  0  0  0  0  0  0  0  0  0  0  0
    0.6538    1.5229    0.0000 C   0  0  0  0  0  0  0  0  0  0  0  0
   -0.1712    1.5229    0.0000 C   0  0  0  0  0  0  0  0  0  0  0  0
    1.1387    2.1904    0.0000 N   0  0  0  0  0  0  0  0  0  0  0  0
    1.9233    1.9354    0.0000 C   0  0  0  0  0  0  0  0  0  0  0  0
    2.6378    2.3479    0.0000 C   0  0  0  0  0  0  0  0  0  0  0  0
    6.9246    3.1729    0.0000 C   0  0  0  0  0  0  0  0  0  0  0  0
    6.2102    3.5854    0.0000 Cl  0  0  0  0  0  0  0  0  0  0  0  0
    7.6391    3.5854    0.0000 C   0  0  0  0  0  0  0  0  0  0  0  0
    9.1543    4.4059    0.0000 N   0  0  0  0  0  0  0  0  0  0  0  0
  1  2  1  0  0  0  0
  2  3  4  0  0  0  0
  3  4  4  0  0  0  0
  4  5  4  0  0  0  0
  5  6  1  0  0  0  0
  6  7  4  0  0  0  0
  7  8  4  0  0  0  0
  8  9  1  0  0  0  0
  8 10  4  0  0  0  0
 10 11  1  0  0  0  0
 11 12  2  0  0  0  0
 11 13  1  0  0  0  0
 13 14  1  0  0  0  0
 14 15  1  0  0  0  0
 15 16  1  0  0  0  0
 16 17  4  0  0  0  0
 17 18  4  0  0  0  0
 18 19  4  0  0  0  0
 19 20  4  0  0  0  0
 20 21  1  0  0  0  0
 20 22  4  0  0  0  0
 16 22  4  0  0  0  0
 15 23  1  6  0  0  0
 23 24  4  0  0  0  0
 24 25  4  0  0  0  0
 25 26  4  0  0  0  0
 26 27  4  0  0  0  0
 27 28  4  0  0  0  0
 28 29  1  0  0  0  0
 28 30  4  0  0  0  0
 30 31  4  0  0  0  0
 26 31  4  0  0  0  0
 31 32  4  0  0  0  0
 23 32  4  0  0  0  0
 10 33  4  0  0  0  0
 33 34  1  0  0  0  0
 33 35  4  0  0  0  0
  6 35  4  0  0  0  0
  5 36  4  0  0  0  0
  2 36  4  0  0  0  0
M  STY  1   1 DAT
M  SAL   1  1  27
M  SDT   1 MRV_IMPLICIT_H                                        
M  SDD   1     0.0000    0.0000    DR    ALL  0       0  
M  SED   1 IMPL_H1
M  END
>  <CdId>
358291

>  <Mol Weight>
523.389

>  <Formula>
C26H21Cl2FN6O

>  <cmpd_chemblid>
CHEMBL3627897

>  <std_type>
Ki

>  <std_value>
9.1

>  <std_unit>
nM

>  <target_id>
CHEMBL2016

>  <target_name>
Coagulation factor IX

>  <organism>
Homo sapiens

>  <target_type>
SINGLE PROTEIN

$$$$

  Mrv0541 08052111042D          

 37 40  0  0  1  0            999 V2000
   -6.0858    4.6798    0.0000 C   0  0  0  0  0  0  0  0  0  0  0  0
   -5.2653    4.7660    0.0000 N   0  0  0  0  0  0  0  0  0  0  0  0
   -4.9297    5.5197    0.0000 C   0  0  0  0  0  0  0  0  0  0  0  0
   -4.7804    4.0986    0.0000 C   0  0  0  0  0  0  0  0  0  0  0  0
   -3.9599    4.1848    0.0000 N   0  0  0  0  0  0  0  0  0  0  0  0
   -3.4749    3.5174    0.0000 C   0  0  0  0  0  0  0  0  0  0  0  0
   -3.8105    2.7637    0.0000 C   0  0  0  0  0  0  0  0  0  0  0  0
   -3.3256    2.0962    0.0000 S   0  0  0  0  0  0  0  0  0  0  0  0
   -3.9930    1.6113    0.0000 O   0  0  0  0  0  0  0  0  0  0  0  0
   -2.6581    2.5812    0.0000 O   0  0  0  0  0  0  0  0  0  0  0  0
   -2.8407    1.4288    0.0000 N   0  0  0  0  0  0  0  0  0  0  0  0
   -2.0202    1.5150    0.0000 C   0  0  1  0  0  0  0  0  0  0  0  0
   -1.6077    2.2295    0.0000 C   0  0  0  0  0  0  0  0  0  0  0  0
   -0.8007    2.0580    0.0000 C   0  0  0  0  0  0  0  0  0  0  0  0
   -0.7145    1.2375    0.0000 N   0  0  0  0  0  0  0  0  0  0  0  0
    0.0000    0.8250    0.0000 C   0  0  2  0  0  0  0  0  0  0  0  0
    0.0000    0.0000    0.0000 C   0  0  0  0  0  0  0  0  0  0  0  0
    0.7145   -0.4125    0.0000 C   0  0  0  0  0  0  0  0  0  0  0  0
    1.4289    0.0000    0.0000 C   0  0  0  0  0  0  0  0  0  0  0  0
    2.1434   -0.4125    0.0000 C   0  0  0  0  0  0  0  0  0  0  0  0
    2.8579    0.0000    0.0000 C   0  0  0  0  0  0  0  0  0  0  0  0
    3.5724   -0.4125    0.0000 C   0  0  0  0  0  0  0  0  0  0  0  0
    3.5724   -1.2375    0.0000 N   0  0  0  0  0  0  0  0  0  0  0  0
    2.8579   -1.6500    0.0000 C   0  0  0  0  0  0  0  0  0  0  0  0
    2.8579   -2.4750    0.0000 N   0  0  0  0  0  0  0  0  0  0  0  0
    2.1434   -1.2375    0.0000 C   0  0  0  0  0  0  0  0  0  0  0  0
    1.4289   -1.6500    0.0000 C   0  0  0  0  0  0  0  0  0  0  0  0
    0.7145   -1.2375    0.0000 C   0  0  0  0  0  0  0  0  0  0  0  0
    0.0000   -1.6500    0.0000 Cl  0  0  0  0  0  0  0  0  0  0  0  0
    0.7145    1.2375    0.0000 C   0  0  0  0  0  0  0  0  0  0  0  0
    0.7145    2.0625    0.0000 O   0  0  0  0  0  0  0  0  0  0  0  0
    1.4289    0.8250    0.0000 O   0  0  0  0  0  0  0  0  0  0  0  0
   -1.4681    0.9019    0.0000 C   0  0  0  0  0  0  0  0  0  0  0  0
   -1.6397    0.0950    0.0000 O   0  0  0  0  0  0  0  0  0  0  0  0
   -4.6310    2.6774    0.0000 C   0  0  0  0  0  0  0  0  0  0  0  0
   -5.1159    3.3449    0.0000 C   0  0  0  0  0  0  0  0  0  0  0  0
   -5.9364    3.2586    0.0000 Cl  0  0  0  0  0  0  0  0  0  0  0  0
  1  2  1  0  0  0  0
  2  3  1  0  0  0  0
  2  4  1  0  0  0  0
  4  5  4  0  0  0  0
  5  6  4  0  0  0  0
  6  7  4  0  0  0  0
  7  8  1  0  0  0  0
  8  9  2  0  0  0  0
  8 10  2  0  0  0  0
  8 11  1  0  0  0  0
 12 11  1  1  0  0  0
 12 13  1  0  0  0  0
 13 14  1  0  0  0  0
 14 15  1  0  0  0  0
 16 15  1  1  0  0  0
 16 17  1  0  0  0  0
 17 18  1  0  0  0  0
 18 19  4  0  0  0  0
 19 20  4  0  0  0  0
 20 21  4  0  0  0  0
 21 22  4  0  0  0  0
 22 23  4  0  0  0  0
 23 24  4  0  0  0  0
 24 25  1  0  0  0  0
 24 26  4  0  0  0  0
 20 26  4  0  0  0  0
 26 27  4  0  0  0  0
 27 28  4  0  0  0  0
 18 28  4  0  0  0  0
 28 29  1  0  0  0  0
 16 30  1  0  0  0  0
 30 31  2  0  0  0  0
 30 32  1  0  0  0  0
 15 33  1  0  0  0  0
 12 33  1  0  0  0  0
 33 34  2  0  0  0  0
  7 35  4  0  0  0  0
 35 36  4  0  0  0  0
  4 36  4  0  0  0  0
 36 37  1  0  0  0  0
M  END
>  <CdId>
358292

>  <Mol Weight>
567.445

>  <Formula>
C23H24Cl2N6O5S

>  <cmpd_chemblid>
CHEMBL3944249

>  <std_type>
Ki

>  <std_value>
135.0

>  <std_unit>
nM

>  <target_id>
CHEMBL2016

>  <target_name>
Coagulation factor IX

>  <organism>
Homo sapiens

>  <target_type>
SINGLE PROTEIN

$$$$

  Mrv0541 08052111042D          

 39 42  0  0  1  0            999 V2000
   -1.1270   -0.5230    0.0000 C   0  0  0  0  0  0  0  0  0  0  0  0
   -0.7145   -1.2375    0.0000 C   0  0  0  0  0  0  0  0  0  0  0  0
    0.1105   -1.2375    0.0000 O   0  0  0  0  0  0  0  0  0  0  0  0
    0.5230   -1.9520    0.0000 C   0  0  0  0  0  0  0  0  0  0  0  0
    0.1105   -2.6664    0.0000 O   0  0  0  0  0  0  0  0  0  0  0  0
    1.3480   -1.9520    0.0000 C   0  0  1  0  0  0  0  0  0  0  0  0
    1.7605   -1.2375    0.0000 C   0  0  0  0  0  0  0  0  0  0  0  0
    1.3480   -0.5230    0.0000 C   0  0  0  0  0  0  0  0  0  0  0  0
    0.5230   -0.5230    0.0000 C   0  0  0  0  0  0  0  0  0  0  0  0
    0.1105    0.1914    0.0000 C   0  0  0  0  0  0  0  0  0  0  0  0
   -0.7145    0.1914    0.0000 C   0  0  0  0  0  0  0  0  0  0  0  0
   -1.1270    0.9059    0.0000 C   0  0  0  0  0  0  0  0  0  0  0  0
   -0.7145    1.6204    0.0000 N   0  0  0  0  0  0  0  0  0  0  0  0
    0.1105    1.6204    0.0000 C   0  0  0  0  0  0  0  0  0  0  0  0
    0.5230    2.3349    0.0000 N   0  0  0  0  0  0  0  0  0  0  0  0
    0.5230    0.9059    0.0000 C   0  0  0  0  0  0  0  0  0  0  0  0
    1.3480    0.9059    0.0000 C   0  0  0  0  0  0  0  0  0  0  0  0
    1.7605    0.1914    0.0000 C   0  0  0  0  0  0  0  0  0  0  0  0
    2.5855    0.1914    0.0000 O   0  0  0  0  0  0  0  0  0  0  0  0
    2.9980   -0.5230    0.0000 C   0  0  0  0  0  0  0  0  0  0  0  0
    1.7605   -2.6664    0.0000 N   0  0  0  0  0  0  0  0  0  0  0  0
    2.5810   -2.7527    0.0000 C   0  0  0  0  0  0  0  0  0  0  0  0
    2.7525   -3.5596    0.0000 C   0  0  0  0  0  0  0  0  0  0  0  0
    2.0381   -3.9721    0.0000 C   0  0  2  0  0  0  0  0  0  0  0  0
    1.9518   -4.7926    0.0000 N   0  0  0  0  0  0  0  0  0  0  0  0
    1.1982   -5.1282    0.0000 S   0  0  0  0  0  0  0  0  0  0  0  0
    0.8626   -4.3745    0.0000 O   0  0  0  0  0  0  0  0  0  0  0  0
    1.5337   -5.8819    0.0000 O   0  0  0  0  0  0  0  0  0  0  0  0
    0.4445   -5.4637    0.0000 C   0  0  0  0  0  0  0  0  0  0  0  0
    0.3582   -6.2842    0.0000 C   0  0  0  0  0  0  0  0  0  0  0  0
   -0.3954   -6.6198    0.0000 C   0  0  0  0  0  0  0  0  0  0  0  0
   -1.0629   -6.1349    0.0000 C   0  0  0  0  0  0  0  0  0  0  0  0
   -1.8165   -6.4704    0.0000 N   0  0  0  0  0  0  0  0  0  0  0  0
   -1.9028   -7.2909    0.0000 C   0  0  0  0  0  0  0  0  0  0  0  0
   -2.4840   -5.9855    0.0000 C   0  0  0  0  0  0  0  0  0  0  0  0
   -0.9766   -5.3144    0.0000 N   0  0  0  0  0  0  0  0  0  0  0  0
   -0.2230   -4.9788    0.0000 C   0  0  0  0  0  0  0  0  0  0  0  0
    1.4250   -3.4201    0.0000 C   0  0  0  0  0  0  0  0  0  0  0  0
    0.6180   -3.5916    0.0000 O   0  0  0  0  0  0  0  0  0  0  0  0
  1  2  1  0  0  0  0
  2  3  1  0  0  0  0
  3  4  1  0  0  0  0
  4  5  2  0  0  0  0
  4  6  1  0  0  0  0
  6  7  1  0  0  0  0
  7  8  1  0  0  0  0
  8  9  4  0  0  0  0
  9 10  4  0  0  0  0
 10 11  4  0  0  0  0
 11 12  4  0  0  0  0
 12 13  4  0  0  0  0
 13 14  4  0  0  0  0
 14 15  1  0  0  0  0
 14 16  4  0  0  0  0
 10 16  4  0  0  0  0
 16 17  4  0  0  0  0
 17 18  4  0  0  0  0
  8 18  4  0  0  0  0
 18 19  1  0  0  0  0
 19 20  1  0  0  0  0
  6 21  1  1  0  0  0
 21 22  1  0  0  0  0
 22 23  1  0  0  0  0
 23 24  1  0  0  0  0
 24 25  1  6  0  0  0
 25 26  1  0  0  0  0
 26 27  2  0  0  0  0
 26 28  2  0  0  0  0
 26 29  1  0  0  0  0
 29 30  4  0  0  0  0
 30 31  4  0  0  0  0
 31 32  4  0  0  0  0
 32 33  1  0  0  0  0
 33 34  1  0  0  0  0
 33 35  1  0  0  0  0
 32 36  4  0  0  0  0
 36 37  4  0  0  0  0
 29 37  4  0  0  0  0
 24 38  1  0  0  0  0
 21 38  1  0  0  0  0
 38 39  2  0  0  0  0
M  END
>  <CdId>
358293

>  <Mol Weight>
556.634

>  <Formula>
C26H32N6O6S

>  <cmpd_chemblid>
CHEMBL3894663

>  <std_type>
Ki

>  <std_value>
550.0

>  <std_unit>
nM

>  <target_id>
CHEMBL2016

>  <target_name>
Coagulation factor IX

>  <organism>
Homo sapiens

>  <target_type>
SINGLE PROTEIN

$$$$

  Mrv0541 08052111042D          

 42 46  0  0  1  0            999 V2000
    8.6329   -2.2539    0.0000 C   0  0  0  0  0  0  0  0  0  0  0  0
    8.2204   -1.5395    0.0000 O   0  0  0  0  0  0  0  0  0  0  0  0
    7.3954   -1.5395    0.0000 C   0  0  0  0  0  0  0  0  0  0  0  0
    6.9829   -2.2539    0.0000 O   0  0  0  0  0  0  0  0  0  0  0  0
    6.9829   -0.8250    0.0000 N   0  0  0  0  0  0  0  0  0  0  0  0
    6.1579   -0.8250    0.0000 C   0  0  0  0  0  0  0  0  0  0  0  0
    5.7454   -0.1105    0.0000 C   0  0  0  0  0  0  0  0  0  0  0  0
    4.9204   -0.1105    0.0000 C   0  0  0  0  0  0  0  0  0  0  0  0
    4.5079   -0.8250    0.0000 C   0  0  0  0  0  0  0  0  0  0  0  0
    4.9204   -1.5395    0.0000 C   0  0  0  0  0  0  0  0  0  0  0  0
    5.7454   -1.5395    0.0000 C   0  0  0  0  0  0  0  0  0  0  0  0
    4.5079   -2.2539    0.0000 N   0  0  0  0  0  0  0  0  0  0  0  0
    4.9204   -2.9684    0.0000 C   0  0  0  0  0  0  0  0  0  0  0  0
    5.7454   -2.9684    0.0000 O   0  0  0  0  0  0  0  0  0  0  0  0
    4.5079   -3.6829    0.0000 C   0  0  2  0  0  0  0  0  0  0  0  0
    4.9204   -4.3974    0.0000 C   0  0  0  0  0  0  0  0  0  0  0  0
    3.6829   -3.6829    0.0000 C   0  0  0  0  0  0  0  0  0  0  0  0
    3.2704   -2.9684    0.0000 C   0  0  0  0  0  0  0  0  0  0  0  0
    2.4454   -2.9684    0.0000 C   0  0  0  0  0  0  0  0  0  0  0  0
    2.0329   -2.2539    0.0000 C   0  0  2  0  0  0  0  0  0  0  0  0
    1.2079   -2.2539    0.0000 N   0  0  0  0  0  0  0  0  0  0  0  0
    0.7954   -2.9684    0.0000 C   0  0  0  0  0  0  0  0  0  0  0  0
   -0.0296   -2.9684    0.0000 C   0  0  0  0  0  0  0  0  0  0  0  0
   -0.4421   -2.2539    0.0000 C   0  0  0  0  0  0  0  0  0  0  0  0
   -1.2671   -2.2539    0.0000 C   0  0  0  0  0  0  0  0  0  0  0  0
   -1.6796   -2.9684    0.0000 C   0  0  0  0  0  0  0  0  0  0  0  0
   -1.2671   -3.6829    0.0000 F   0  0  0  0  0  0  0  0  0  0  0  0
   -2.5046   -2.9684    0.0000 C   0  0  0  0  0  0  0  0  0  0  0  0
   -2.9171   -2.2539    0.0000 C   0  0  0  0  0  0  0  0  0  0  0  0
   -2.5046   -1.5395    0.0000 C   0  0  0  0  0  0  0  0  0  0  0  0
   -1.6796   -1.5395    0.0000 C   0  0  0  0  0  0  0  0  0  0  0  0
   -1.2671   -0.8250    0.0000 C   0  0  0  0  0  0  0  0  0  0  0  0
   -0.8546   -0.1105    0.0000 N   0  0  0  0  0  0  0  0  0  0  0  0
   -0.0296   -1.5395    0.0000 C   0  0  0  0  0  0  0  0  0  0  0  0
    0.7954   -1.5395    0.0000 C   0  0  0  0  0  0  0  0  0  0  0  0
    1.2079   -0.8250    0.0000 O   0  0  0  0  0  0  0  0  0  0  0  0
    2.4454   -1.5395    0.0000 C   0  0  0  0  0  0  0  0  0  0  0  0
    3.2704   -1.5395    0.0000 C   0  0  0  0  0  0  0  0  0  0  0  0
    3.6829   -0.8250    0.0000 C   0  0  0  0  0  0  0  0  0  0  0  0
    3.2704   -0.1105    0.0000 C   0  0  0  0  0  0  0  0  0  0  0  0
    2.4454   -0.1105    0.0000 C   0  0  0  0  0  0  0  0  0  0  0  0
    2.0329   -0.8250    0.0000 N   0  0  0  0  0  0  0  0  0  0  0  0
  1  2  1  0  0  0  0
  2  3  1  0  0  0  0
  3  4  2  0  0  0  0
  3  5  1  0  0  0  0
  5  6  1  0  0  0  0
  6  7  4  0  0  0  0
  7  8  4  0  0  0  0
  8  9  4  0  0  0  0
  9 10  4  0  0  0  0
 10 11  4  0  0  0  0
  6 11  4  0  0  0  0
 10 12  1  0  0  0  0
 12 13  1  0  0  0  0
 13 14  2  0  0  0  0
 13 15  1  0  0  0  0
 15 16  1  6  0  0  0
 15 17  1  0  0  0  0
 17 18  1  0  0  0  0
 18 19  1  0  0  0  0
 19 20  1  0  0  0  0
 20 21  1  6  0  0  0
 21 22  1  0  0  0  0
 22 23  1  0  0  0  0
 23 24  1  0  0  0  0
 24 25  1  0  0  0  0
 25 26  4  0  0  0  0
 26 27  1  0  0  0  0
 26 28  4  0  0  0  0
 28 29  4  0  0  0  0
 29 30  4  0  0  0  0
 30 31  4  0  0  0  0
 25 31  4  0  0  0  0
 31 32  1  0  0  0  0
 32 33  3  0  0  0  0
 24 34  2  0  0  0  0
 34 35  1  0  0  0  0
 21 35  1  0  0  0  0
 35 36  2  0  0  0  0
 20 37  1  0  0  0  0
 37 38  4  0  0  0  0
 38 39  4  0  0  0  0
  9 39  1  0  0  0  0
 39 40  4  0  0  0  0
 40 41  4  0  0  0  0
 41 42  4  0  0  0  0
 37 42  4  0  0  0  0
M  END
>  <CdId>
358294

>  <Mol Weight>
567.6101

>  <Formula>
C32H30FN5O4

>  <cmpd_chemblid>
CHEMBL4108223

>  <std_type>
Ki

>  <std_value>
2.64

>  <std_unit>
nM

>  <target_id>
CHEMBL2016

>  <target_name>
Coagulation factor IX

>  <organism>
Homo sapiens

>  <target_type>
SINGLE PROTEIN

$$$$

  Mrv0541 08052111042D          

 42 47  0  0  1  0            999 V2000
    7.4317    4.3103    0.0000 C   0  0  0  0  0  0  0  0  0  0  0  0
    7.7017    3.5307    0.0000 C   0  0  2  0  0  0  0  0  0  0  0  0
    8.5119    3.3748    0.0000 C   0  0  0  0  0  0  0  0  0  0  0  0
    8.7819    2.5952    0.0000 C   0  0  0  0  0  0  0  0  0  0  0  0
    9.5921    2.4393    0.0000 C   0  0  0  0  0  0  0  0  0  0  0  0
    9.8621    1.6598    0.0000 C   0  0  2  0  0  0  0  0  0  0  0  0
   10.6722    1.5039    0.0000 N   0  0  0  0  0  0  0  0  0  0  0  0
   11.2123    2.1275    0.0000 C   0  0  0  0  0  0  0  0  0  0  0  0
   12.0225    1.9716    0.0000 C   0  0  0  0  0  0  0  0  0  0  0  0
   12.2925    1.1921    0.0000 C   0  0  0  0  0  0  0  0  0  0  0  0
   13.1026    1.0361    0.0000 C   0  0  0  0  0  0  0  0  0  0  0  0
   13.6427    1.6598    0.0000 C   0  0  0  0  0  0  0  0  0  0  0  0
   13.3727    2.4393    0.0000 F   0  0  0  0  0  0  0  0  0  0  0  0
   14.4529    1.5039    0.0000 C   0  0  0  0  0  0  0  0  0  0  0  0
   14.7229    0.7243    0.0000 C   0  0  0  0  0  0  0  0  0  0  0  0
   14.1828    0.1007    0.0000 C   0  0  0  0  0  0  0  0  0  0  0  0
   14.4529   -0.6789    0.0000 Cl  0  0  0  0  0  0  0  0  0  0  0  0
   13.3727    0.2566    0.0000 C   0  0  0  0  0  0  0  0  0  0  0  0
   12.8326   -0.3671    0.0000 F   0  0  0  0  0  0  0  0  0  0  0  0
   11.7524    0.5684    0.0000 C   0  0  0  0  0  0  0  0  0  0  0  0
   10.9423    0.7243    0.0000 C   0  0  0  0  0  0  0  0  0  0  0  0
   10.4022    0.1007    0.0000 O   0  0  0  0  0  0  0  0  0  0  0  0
    9.3220    1.0361    0.0000 C   0  0  0  0  0  0  0  0  0  0  0  0
    8.5119    1.1921    0.0000 C   0  0  0  0  0  0  0  0  0  0  0  0
    7.9718    0.5684    0.0000 C   0  0  0  0  0  0  0  0  0  0  0  0
    8.2418   -0.2111    0.0000 C   0  0  0  0  0  0  0  0  0  0  0  0
    9.0520   -0.3671    0.0000 C   0  0  0  0  0  0  0  0  0  0  0  0
    9.5921    0.2566    0.0000 N   0  0  0  0  0  0  0  0  0  0  0  0
    7.1617    0.7243    0.0000 C   0  0  0  0  0  0  0  0  0  0  0  0
    6.6216    0.1007    0.0000 C   0  0  0  0  0  0  0  0  0  0  0  0
    5.8114    0.2566    0.0000 C   0  0  0  0  0  0  0  0  0  0  0  0
    5.5414    1.0361    0.0000 C   0  0  0  0  0  0  0  0  0  0  0  0
    6.0815    1.6598    0.0000 C   0  0  0  0  0  0  0  0  0  0  0  0
    6.8916    1.5039    0.0000 C   0  0  0  0  0  0  0  0  0  0  0  0
    7.4317    2.1275    0.0000 N   0  0  0  0  0  0  0  0  0  0  0  0
    7.1617    2.9071    0.0000 C   0  0  0  0  0  0  0  0  0  0  0  0
    6.3515    3.0630    0.0000 O   0  0  0  0  0  0  0  0  0  0  0  0
    4.7313    1.1921    0.0000 N   0  0  0  0  0  0  0  0  0  0  0  0
    4.1912    0.5684    0.0000 C   0  0  0  0  0  0  0  0  0  0  0  0
    3.3810    0.7243    0.0000 O   0  0  0  0  0  0  0  0  0  0  0  0
    4.4612   -0.2111    0.0000 C   0  0  0  0  0  0  0  0  0  0  0  0
    5.2713   -0.3671    0.0000 C   0  0  0  0  0  0  0  0  0  0  0  0
  2  1  1  6  0  0  0
  2  3  1  0  0  0  0
  3  4  1  0  0  0  0
  4  5  1  0  0  0  0
  5  6  1  0  0  0  0
  6  7  1  6  0  0  0
  7  8  1  0  0  0  0
  8  9  1  0  0  0  0
  9 10  1  0  0  0  0
 10 11  1  0  0  0  0
 11 12  4  0  0  0  0
 12 13  1  0  0  0  0
 12 14  4  0  0  0  0
 14 15  4  0  0  0  0
 15 16  4  0  0  0  0
 16 17  1  0  0  0  0
 16 18  4  0  0  0  0
 11 18  4  0  0  0  0
 18 19  1  0  0  0  0
 10 20  2  0  0  0  0
 20 21  1  0  0  0  0
  7 21  1  0  0  0  0
 21 22  2  0  0  0  0
  6 23  1  0  0  0  0
 23 24  4  0  0  0  0
 24 25  4  0  0  0  0
 25 26  4  0  0  0  0
 26 27  4  0  0  0  0
 27 28  4  0  0  0  0
 23 28  4  0  0  0  0
 25 29  1  0  0  0  0
 29 30  4  0  0  0  0
 30 31  4  0  0  0  0
 31 32  4  0  0  0  0
 32 33  4  0  0  0  0
 33 34  4  0  0  0  0
 29 34  4  0  0  0  0
 34 35  1  0  0  0  0
 35 36  1  0  0  0  0
  2 36  1  0  0  0  0
 36 37  2  0  0  0  0
 32 38  1  0  0  0  0
 38 39  1  0  0  0  0
 39 40  2  0  0  0  0
 39 41  1  0  0  0  0
 41 42  1  0  0  0  0
 31 42  1  0  0  0  0
M  END
>  <CdId>
358295

>  <Mol Weight>
591.047

>  <Formula>
C32H29ClF2N4O3

>  <cmpd_chemblid>
CHEMBL4114872

>  <std_type>
Ki

>  <std_value>
0.72

>  <std_unit>
nM

>  <target_id>
CHEMBL2016

>  <target_name>
Coagulation factor IX

>  <organism>
Homo sapiens

>  <target_type>
SINGLE PROTEIN

$$$$

  Mrv0541 08052111042D          

 41 45  0  0  1  0            999 V2000
    4.5375   -2.9684    0.0000 C   0  0  0  0  0  0  0  0  0  0  0  0
    4.1250   -2.2539    0.0000 O   0  0  0  0  0  0  0  0  0  0  0  0
    3.3000   -2.2539    0.0000 C   0  0  0  0  0  0  0  0  0  0  0  0
    2.8875   -2.9684    0.0000 O   0  0  0  0  0  0  0  0  0  0  0  0
    2.8875   -1.5395    0.0000 C   0  0  0  0  0  0  0  0  0  0  0  0
    3.3000   -0.8250    0.0000 C   0  0  0  0  0  0  0  0  0  0  0  0
    2.8875   -0.1105    0.0000 C   0  0  0  0  0  0  0  0  0  0  0  0
    2.0625   -0.1105    0.0000 C   0  0  0  0  0  0  0  0  0  0  0  0
    1.6500   -0.8250    0.0000 C   0  0  0  0  0  0  0  0  0  0  0  0
    2.0625   -1.5395    0.0000 C   0  0  0  0  0  0  0  0  0  0  0  0
    0.8250   -0.8250    0.0000 C   0  0  0  0  0  0  0  0  0  0  0  0
    0.4125   -1.5395    0.0000 C   0  0  0  0  0  0  0  0  0  0  0  0
   -0.4125   -1.5395    0.0000 C   0  0  0  0  0  0  0  0  0  0  0  0
   -0.8250   -0.8250    0.0000 C   0  0  0  0  0  0  0  0  0  0  0  0
   -0.4125   -0.1105    0.0000 C   0  0  0  0  0  0  0  0  0  0  0  0
    0.4125   -0.1105    0.0000 C   0  0  0  0  0  0  0  0  0  0  0  0
   -0.8250    0.6039    0.0000 C   0  0  2  0  0  0  0  0  0  0  0  0
   -1.6500    0.6039    0.0000 N   0  0  0  0  0  0  0  0  0  0  0  0
   -2.0625   -0.1105    0.0000 C   0  0  0  0  0  0  0  0  0  0  0  0
   -2.8875   -0.1105    0.0000 C   0  0  0  0  0  0  0  0  0  0  0  0
   -3.3000    0.6039    0.0000 C   0  0  0  0  0  0  0  0  0  0  0  0
   -4.1250    0.6039    0.0000 C   0  0  0  0  0  0  0  0  0  0  0  0
   -4.5375   -0.1105    0.0000 C   0  0  0  0  0  0  0  0  0  0  0  0
   -4.1250   -0.8250    0.0000 Br  0  0  0  0  0  0  0  0  0  0  0  0
   -5.3625   -0.1105    0.0000 C   0  0  0  0  0  0  0  0  0  0  0  0
   -5.7750    0.6039    0.0000 C   0  0  0  0  0  0  0  0  0  0  0  0
   -5.3625    1.3184    0.0000 C   0  0  0  0  0  0  0  0  0  0  0  0
   -5.7750    2.0329    0.0000 Cl  0  0  0  0  0  0  0  0  0  0  0  0
   -4.5375    1.3184    0.0000 C   0  0  0  0  0  0  0  0  0  0  0  0
   -4.1250    2.0329    0.0000 F   0  0  0  0  0  0  0  0  0  0  0  0
   -2.8875    1.3184    0.0000 C   0  0  0  0  0  0  0  0  0  0  0  0
   -2.0625    1.3184    0.0000 C   0  0  0  0  0  0  0  0  0  0  0  0
   -1.6500    2.0329    0.0000 O   0  0  0  0  0  0  0  0  0  0  0  0
   -0.4125    1.3184    0.0000 C   0  0  0  0  0  0  0  0  0  0  0  0
    0.4125    1.3184    0.0000 C   0  0  0  0  0  0  0  0  0  0  0  0
    0.8250    2.0329    0.0000 C   0  0  0  0  0  0  0  0  0  0  0  0
    1.6500    2.0329    0.0000 C   0  0  1  0  0  0  0  0  0  0  0  0
    2.0625    2.7474    0.0000 C   0  0  0  0  0  0  0  0  0  0  0  0
    2.0625    1.3184    0.0000 C   0  0  0  0  0  0  0  0  0  0  0  0
    2.8875    1.3184    0.0000 O   0  0  0  0  0  0  0  0  0  0  0  0
    1.6500    0.6039    0.0000 N   0  0  0  0  0  0  0  0  0  0  0  0
  1  2  1  0  0  0  0
  2  3  1  0  0  0  0
  3  4  2  0  0  0  0
  3  5  1  0  0  0  0
  5  6  4  0  0  0  0
  6  7  4  0  0  0  0
  7  8  4  0  0  0  0
  8  9  4  0  0  0  0
  9 10  4  0  0  0  0
  5 10  4  0  0  0  0
  9 11  1  0  0  0  0
 11 12  4  0  0  0  0
 12 13  4  0  0  0  0
 13 14  4  0  0  0  0
 14 15  4  0  0  0  0
 15 16  4  0  0  0  0
 11 16  4  0  0  0  0
 15 17  1  0  0  0  0
 17 18  1  6  0  0  0
 18 19  1  0  0  0  0
 19 20  1  0  0  0  0
 20 21  1  0  0  0  0
 21 22  1  0  0  0  0
 22 23  4  0  0  0  0
 23 24  1  0  0  0  0
 23 25  4  0  0  0  0
 25 26  4  0  0  0  0
 26 27  4  0  0  0  0
 27 28  1  0  0  0  0
 27 29  4  0  0  0  0
 22 29  4  0  0  0  0
 29 30  1  0  0  0  0
 21 31  2  0  0  0  0
 31 32  1  0  0  0  0
 18 32  1  0  0  0  0
 32 33  2  0  0  0  0
 17 34  1  0  0  0  0
 34 35  1  0  0  0  0
 35 36  1  0  0  0  0
 36 37  1  0  0  0  0
 37 38  1  1  0  0  0
 37 39  1  0  0  0  0
 39 40  2  0  0  0  0
 39 41  1  0  0  0  0
  8 41  1  0  0  0  0
M  END
>  <CdId>
358297

>  <Mol Weight>
639.939

>  <Formula>
C32H29BrClFN2O4

>  <cmpd_chemblid>
CHEMBL4108372

>  <std_type>
Ki

>  <std_value>
624.8

>  <std_unit>
nM

>  <target_id>
CHEMBL2016

>  <target_name>
Coagulation factor IX

>  <organism>
Homo sapiens

>  <target_type>
SINGLE PROTEIN

$$$$

  Mrv0541 08052111042D          

 39 43  0  0  1  0            999 V2000
    3.6017    3.9187    0.0000 C   0  0  0  0  0  0  0  0  0  0  0  0
    4.0363    3.2175    0.0000 C   0  0  2  0  0  0  0  0  0  0  0  0
    4.8609    3.2432    0.0000 C   0  0  0  0  0  0  0  0  0  0  0  0
    5.2955    2.5420    0.0000 C   0  0  0  0  0  0  0  0  0  0  0  0
    6.1201    2.5677    0.0000 C   0  0  0  0  0  0  0  0  0  0  0  0
    6.5547    1.8665    0.0000 C   0  0  2  0  0  0  0  0  0  0  0  0
    7.3793    1.8923    0.0000 N   0  0  0  0  0  0  0  0  0  0  0  0
    7.7693    2.6193    0.0000 C   0  0  0  0  0  0  0  0  0  0  0  0
    8.5939    2.6450    0.0000 C   0  0  0  0  0  0  0  0  0  0  0  0
    9.0285    1.9438    0.0000 C   0  0  0  0  0  0  0  0  0  0  0  0
    9.8531    1.9696    0.0000 C   0  0  0  0  0  0  0  0  0  0  0  0
   10.2431    2.6966    0.0000 C   0  0  0  0  0  0  0  0  0  0  0  0
    9.8085    3.3978    0.0000 F   0  0  0  0  0  0  0  0  0  0  0  0
   11.0677    2.7223    0.0000 C   0  0  0  0  0  0  0  0  0  0  0  0
   11.5023    2.0211    0.0000 C   0  0  0  0  0  0  0  0  0  0  0  0
   11.1123    1.2941    0.0000 C   0  0  0  0  0  0  0  0  0  0  0  0
   11.5469    0.5928    0.0000 Cl  0  0  0  0  0  0  0  0  0  0  0  0
   10.2877    1.2683    0.0000 C   0  0  0  0  0  0  0  0  0  0  0  0
    9.8977    0.5413    0.0000 F   0  0  0  0  0  0  0  0  0  0  0  0
    8.6385    1.2168    0.0000 C   0  0  0  0  0  0  0  0  0  0  0  0
    7.8139    1.1910    0.0000 C   0  0  0  0  0  0  0  0  0  0  0  0
    7.4239    0.4640    0.0000 O   0  0  0  0  0  0  0  0  0  0  0  0
    6.1647    1.1395    0.0000 C   0  0  0  0  0  0  0  0  0  0  0  0
    5.3401    1.1137    0.0000 C   0  0  0  0  0  0  0  0  0  0  0  0
    4.9501    0.3867    0.0000 C   0  0  0  0  0  0  0  0  0  0  0  0
    5.3847   -0.3145    0.0000 C   0  0  0  0  0  0  0  0  0  0  0  0
    6.2093   -0.2887    0.0000 C   0  0  0  0  0  0  0  0  0  0  0  0
    6.5993    0.4383    0.0000 N   0  0  0  0  0  0  0  0  0  0  0  0
    4.1255    0.3610    0.0000 N   0  0  0  0  0  0  0  0  0  0  0  0
    3.5929   -0.2691    0.0000 N   0  0  0  0  0  0  0  0  0  0  0  0
    2.8291    0.0428    0.0000 C   0  0  0  0  0  0  0  0  0  0  0  0
    2.1279   -0.3918    0.0000 C   0  0  0  0  0  0  0  0  0  0  0  0
    2.1537   -1.2164    0.0000 O   0  0  0  0  0  0  0  0  0  0  0  0
    1.4009   -0.0018    0.0000 O   0  0  0  0  0  0  0  0  0  0  0  0
    2.8897    0.8656    0.0000 C   0  0  0  0  0  0  0  0  0  0  0  0
    3.6909    1.0622    0.0000 C   0  0  0  0  0  0  0  0  0  0  0  0
    4.0809    1.7892    0.0000 N   0  0  0  0  0  0  0  0  0  0  0  0
    3.6463    2.4905    0.0000 C   0  0  0  0  0  0  0  0  0  0  0  0
    2.8217    2.4647    0.0000 O   0  0  0  0  0  0  0  0  0  0  0  0
  2  1  1  6  0  0  0
  2  3  1  0  0  0  0
  3  4  1  0  0  0  0
  4  5  1  0  0  0  0
  5  6  1  0  0  0  0
  6  7  1  6  0  0  0
  7  8  1  0  0  0  0
  8  9  1  0  0  0  0
  9 10  1  0  0  0  0
 10 11  1  0  0  0  0
 11 12  4  0  0  0  0
 12 13  1  0  0  0  0
 12 14  4  0  0  0  0
 14 15  4  0  0  0  0
 15 16  4  0  0  0  0
 16 17  1  0  0  0  0
 16 18  4  0  0  0  0
 11 18  4  0  0  0  0
 18 19  1  0  0  0  0
 10 20  2  0  0  0  0
 20 21  1  0  0  0  0
  7 21  1  0  0  0  0
 21 22  2  0  0  0  0
  6 23  1  0  0  0  0
 23 24  4  0  0  0  0
 24 25  4  0  0  0  0
 25 26  4  0  0  0  0
 26 27  4  0  0  0  0
 27 28  4  0  0  0  0
 23 28  4  0  0  0  0
 25 29  1  0  0  0  0
 29 30  4  0  0  0  0
 30 31  4  0  0  0  0
 31 32  1  0  0  0  0
 32 33  2  0  0  0  0
 32 34  1  0  0  0  0
 31 35  4  0  0  0  0
 35 36  4  0  0  0  0
 29 36  4  0  0  0  0
 36 37  1  0  0  0  0
 37 38  1  0  0  0  0
  2 38  1  0  0  0  0
 38 39  2  0  0  0  0
M  END
>  <CdId>
358298

>  <Mol Weight>
555.96

>  <Formula>
C27H24ClF2N5O4

>  <cmpd_chemblid>
CHEMBL4110112

>  <std_type>
Ki

>  <std_value>
88.4

>  <std_unit>
nM

>  <target_id>
CHEMBL2016

>  <target_name>
Coagulation factor IX

>  <organism>
Homo sapiens

>  <target_type>
SINGLE PROTEIN

$$$$

  Mrv0541 08052111042D          

 40 44  0  0  1  0            999 V2000
    3.9849    3.9849    0.0000 C   0  0  0  0  0  0  0  0  0  0  0  0
    4.3974    3.2704    0.0000 C   0  0  2  0  0  0  0  0  0  0  0  0
    5.2224    3.2704    0.0000 C   0  0  0  0  0  0  0  0  0  0  0  0
    5.6349    2.5559    0.0000 C   0  0  0  0  0  0  0  0  0  0  0  0
    6.4599    2.5559    0.0000 C   0  0  0  0  0  0  0  0  0  0  0  0
    6.8724    1.8414    0.0000 C   0  0  2  0  0  0  0  0  0  0  0  0
    7.6974    1.8414    0.0000 N   0  0  0  0  0  0  0  0  0  0  0  0
    8.1099    2.5559    0.0000 C   0  0  0  0  0  0  0  0  0  0  0  0
    8.9349    2.5559    0.0000 C   0  0  0  0  0  0  0  0  0  0  0  0
    9.3474    1.8414    0.0000 C   0  0  0  0  0  0  0  0  0  0  0  0
   10.1724    1.8414    0.0000 C   0  0  0  0  0  0  0  0  0  0  0  0
   10.5849    2.5559    0.0000 C   0  0  0  0  0  0  0  0  0  0  0  0
   10.1724    3.2704    0.0000 F   0  0  0  0  0  0  0  0  0  0  0  0
   11.4099    2.5559    0.0000 C   0  0  0  0  0  0  0  0  0  0  0  0
   11.8224    1.8414    0.0000 C   0  0  0  0  0  0  0  0  0  0  0  0
   11.4099    1.1270    0.0000 C   0  0  0  0  0  0  0  0  0  0  0  0
   11.8224    0.4125    0.0000 Cl  0  0  0  0  0  0  0  0  0  0  0  0
   10.5849    1.1270    0.0000 C   0  0  0  0  0  0  0  0  0  0  0  0
   10.1724    0.4125    0.0000 F   0  0  0  0  0  0  0  0  0  0  0  0
    8.9349    1.1270    0.0000 C   0  0  0  0  0  0  0  0  0  0  0  0
    8.1099    1.1270    0.0000 C   0  0  0  0  0  0  0  0  0  0  0  0
    7.6974    0.4125    0.0000 O   0  0  0  0  0  0  0  0  0  0  0  0
    6.4599    1.1270    0.0000 C   0  0  0  0  0  0  0  0  0  0  0  0
    5.6349    1.1270    0.0000 C   0  0  0  0  0  0  0  0  0  0  0  0
    5.2224    0.4125    0.0000 C   0  0  0  0  0  0  0  0  0  0  0  0
    5.6349   -0.3020    0.0000 C   0  0  0  0  0  0  0  0  0  0  0  0
    6.4599   -0.3020    0.0000 C   0  0  0  0  0  0  0  0  0  0  0  0
    6.8724    0.4125    0.0000 N   0  0  0  0  0  0  0  0  0  0  0  0
    4.3974    0.4125    0.0000 C   0  0  0  0  0  0  0  0  0  0  0  0
    3.9849    1.1270    0.0000 C   0  0  0  0  0  0  0  0  0  0  0  0
    3.1599    1.1270    0.0000 C   0  0  0  0  0  0  0  0  0  0  0  0
    2.7474    0.4125    0.0000 C   0  0  0  0  0  0  0  0  0  0  0  0
    3.1599   -0.3020    0.0000 C   0  0  0  0  0  0  0  0  0  0  0  0
    3.9849   -0.3020    0.0000 C   0  0  0  0  0  0  0  0  0  0  0  0
    4.3974   -1.0164    0.0000 C   0  0  0  0  0  0  0  0  0  0  0  0
    5.2224   -1.0164    0.0000 O   0  0  0  0  0  0  0  0  0  0  0  0
    3.9849   -1.7309    0.0000 O   0  0  0  0  0  0  0  0  0  0  0  0
    4.3974    1.8414    0.0000 N   0  0  0  0  0  0  0  0  0  0  0  0
    3.9849    2.5559    0.0000 C   0  0  0  0  0  0  0  0  0  0  0  0
    3.1599    2.5559    0.0000 O   0  0  0  0  0  0  0  0  0  0  0  0
  2  1  1  6  0  0  0
  2  3  1  0  0  0  0
  3  4  1  0  0  0  0
  4  5  1  0  0  0  0
  5  6  1  0  0  0  0
  6  7  1  6  0  0  0
  7  8  1  0  0  0  0
  8  9  1  0  0  0  0
  9 10  1  0  0  0  0
 10 11  1  0  0  0  0
 11 12  4  0  0  0  0
 12 13  1  0  0  0  0
 12 14  4  0  0  0  0
 14 15  4  0  0  0  0
 15 16  4  0  0  0  0
 16 17  1  0  0  0  0
 16 18  4  0  0  0  0
 11 18  4  0  0  0  0
 18 19  1  0  0  0  0
 10 20  2  0  0  0  0
 20 21  1  0  0  0  0
  7 21  1  0  0  0  0
 21 22  2  0  0  0  0
  6 23  1  0  0  0  0
 23 24  4  0  0  0  0
 24 25  4  0  0  0  0
 25 26  4  0  0  0  0
 26 27  4  0  0  0  0
 27 28  4  0  0  0  0
 23 28  4  0  0  0  0
 25 29  1  0  0  0  0
 29 30  4  0  0  0  0
 30 31  4  0  0  0  0
 31 32  4  0  0  0  0
 32 33  4  0  0  0  0
 33 34  4  0  0  0  0
 29 34  4  0  0  0  0
 34 35  1  0  0  0  0
 35 36  2  0  0  0  0
 35 37  1  0  0  0  0
 30 38  1  0  0  0  0
 38 39  1  0  0  0  0
  2 39  1  0  0  0  0
 39 40  2  0  0  0  0
M  END
>  <CdId>
358299

>  <Mol Weight>
565.995

>  <Formula>
C30H26ClF2N3O4

>  <cmpd_chemblid>
CHEMBL4108690

>  <std_type>
Ki

>  <std_value>
422.6

>  <std_unit>
nM

>  <target_id>
CHEMBL2016

>  <target_name>
Coagulation factor IX

>  <organism>
Homo sapiens

>  <target_type>
SINGLE PROTEIN

$$$$

  Mrv0541 08052111042D          

 27 30  0  0  0  0            999 V2000
    5.4957    8.1229    0.0000 C   0  0  0  0  0  0  0  0  0  0  0  0
    5.4957    7.2979    0.0000 C   0  0  0  0  0  0  0  0  0  0  0  0
    6.2102    6.8854    0.0000 C   0  0  0  0  0  0  0  0  0  0  0  0
    6.2102    6.0604    0.0000 C   0  0  0  0  0  0  0  0  0  0  0  0
    5.4957    5.6479    0.0000 C   0  0  0  0  0  0  0  0  0  0  0  0
    5.4957    4.8229    0.0000 C   0  0  0  0  0  0  0  0  0  0  0  0
    4.7812    4.4104    0.0000 O   0  0  0  0  0  0  0  0  0  0  0  0
    4.7812    3.5854    0.0000 C   0  0  0  0  0  0  0  0  0  0  0  0
    5.4957    3.1729    0.0000 C   0  0  0  0  0  0  0  0  0  0  0  0
    5.4957    2.3479    0.0000 C   0  0  0  0  0  0  0  0  0  0  0  0
    4.7812    1.9354    0.0000 C   0  0  0  0  0  0  0  0  0  0  0  0
    4.0668    2.3479    0.0000 C   0  0  0  0  0  0  0  0  0  0  0  0
    3.3523    1.9354    0.0000 C   0  0  0  0  0  0  0  0  0  0  0  0
    3.3523    1.1104    0.0000 C   0  0  0  0  0  0  0  0  0  0  0  0
    2.6378    0.6979    0.0000 C   0  0  0  0  0  0  0  0  0  0  0  0
    1.9233    1.1104    0.0000 C   0  0  0  0  0  0  0  0  0  0  0  0
    1.1387    0.8555    0.0000 S   0  0  0  0  0  0  0  0  0  0  0  0
    0.6538    1.5229    0.0000 C   0  0  0  0  0  0  0  0  0  0  0  0
   -0.1712    1.5229    0.0000 C   0  0  0  0  0  0  0  0  0  0  0  0
   -0.5837    0.8085    0.0000 N   0  0  0  0  0  0  0  0  0  0  0  0
   -0.5837    2.2374    0.0000 N   0  0  0  0  0  0  0  0  0  0  0  0
    1.1387    2.1904    0.0000 C   0  0  0  0  0  0  0  0  0  0  0  0
    1.9233    1.9354    0.0000 C   0  0  0  0  0  0  0  0  0  0  0  0
    2.6378    2.3479    0.0000 C   0  0  0  0  0  0  0  0  0  0  0  0
    4.0668    3.1729    0.0000 C   0  0  0  0  0  0  0  0  0  0  0  0
    4.7812    6.0604    0.0000 C   0  0  0  0  0  0  0  0  0  0  0  0
    4.7812    6.8854    0.0000 C   0  0  0  0  0  0  0  0  0  0  0  0
  1  2  1  0  0  0  0
  2  3  4  0  0  0  0
  3  4  4  0  0  0  0
  4  5  4  0  0  0  0
  5  6  1  0  0  0  0
  6  7  1  0  0  0  0
  7  8  1  0  0  0  0
  8  9  4  0  0  0  0
  9 10  4  0  0  0  0
 10 11  4  0  0  0  0
 11 12  4  0  0  0  0
 12 13  1  0  0  0  0
 13 14  4  0  0  0  0
 14 15  4  0  0  0  0
 15 16  4  0  0  0  0
 16 17  4  0  0  0  0
 17 18  4  0  0  0  0
 18 19  1  0  0  0  0
 19 20  2  0  0  0  0
 19 21  1  0  0  0  0
 18 22  4  0  0  0  0
 22 23  4  0  0  0  0
 16 23  4  0  0  0  0
 23 24  4  0  0  0  0
 13 24  4  0  0  0  0
 12 25  4  0  0  0  0
  8 25  4  0  0  0  0
  5 26  4  0  0  0  0
 26 27  4  0  0  0  0
  2 27  4  0  0  0  0
M  END
>  <CdId>
358300

>  <Mol Weight>
372.483

>  <Formula>
C23H20N2OS

>  <cmpd_chemblid>
CHEMBL609324

>  <std_type>
Ki

>  <std_value>
900.0

>  <std_unit>
nM

>  <target_id>
CHEMBL2016

>  <target_name>
Coagulation factor IX

>  <organism>
Homo sapiens

>  <target_type>
SINGLE PROTEIN

$$$$

  Mrv0541 08052111042D          

 39 44  0  0  1  0            999 V2000
    4.7674    0.7556    0.0000 C   0  0  0  0  0  0  0  0  0  0  0  0
    3.9604    0.5840    0.0000 C   0  0  0  0  0  0  0  0  0  0  0  0
    3.7054   -0.2006    0.0000 C   0  0  0  0  0  0  0  0  0  0  0  0
    2.8985   -0.3721    0.0000 C   0  0  0  0  0  0  0  0  0  0  0  0
    2.3464    0.2410    0.0000 C   0  0  0  0  0  0  0  0  0  0  0  0
    2.6014    1.0256    0.0000 C   0  0  0  0  0  0  0  0  0  0  0  0
    3.4084    1.1971    0.0000 C   0  0  0  0  0  0  0  0  0  0  0  0
    1.9339    1.5105    0.0000 C   0  0  0  0  0  0  0  0  0  0  0  0
    1.9339    2.3355    0.0000 C   0  0  0  0  0  0  0  0  0  0  0  0
    1.2195    2.7480    0.0000 O   0  0  0  0  0  0  0  0  0  0  0  0
    2.6484    2.7480    0.0000 O   0  0  0  0  0  0  0  0  0  0  0  0
    1.2665    1.0256    0.0000 C   0  0  0  0  0  0  0  0  0  0  0  0
    1.5214    0.2410    0.0000 N   0  0  0  0  0  0  0  0  0  0  0  0
    0.9694   -0.3721    0.0000 C   0  0  0  0  0  0  0  0  0  0  0  0
    0.1624   -0.2006    0.0000 C   0  0  1  0  0  0  0  0  0  0  0  0
    0.1336   -1.0251    0.0000 N   0  0  0  0  0  0  0  0  0  0  0  0
    0.8333   -1.4623    0.0000 C   0  0  0  0  0  0  0  0  0  0  0  0
    1.5617   -1.0750    0.0000 O   0  0  0  0  0  0  0  0  0  0  0  0
    0.8045   -2.2868    0.0000 C   0  0  0  0  0  0  0  0  0  0  0  0
    1.5041   -2.7240    0.0000 C   0  0  0  0  0  0  0  0  0  0  0  0
    2.2326   -2.3366    0.0000 Cl  0  0  0  0  0  0  0  0  0  0  0  0
    1.4753   -3.5485    0.0000 C   0  0  0  0  0  0  0  0  0  0  0  0
    0.7469   -3.9358    0.0000 C   0  0  0  0  0  0  0  0  0  0  0  0
    0.7181   -4.7603    0.0000 N   0  0  0  0  0  0  0  0  0  0  0  0
    1.3682   -5.2682    0.0000 C   0  0  0  0  0  0  0  0  0  0  0  0
    1.0861   -6.0434    0.0000 N   0  0  0  0  0  0  0  0  0  0  0  0
    0.2616   -6.0146    0.0000 N   0  0  0  0  0  0  0  0  0  0  0  0
    0.0342   -5.2216    0.0000 N   0  0  0  0  0  0  0  0  0  0  0  0
    0.0473   -3.4986    0.0000 C   0  0  0  0  0  0  0  0  0  0  0  0
    0.0761   -2.6741    0.0000 C   0  0  0  0  0  0  0  0  0  0  0  0
   -0.6236   -2.2369    0.0000 Cl  0  0  0  0  0  0  0  0  0  0  0  0
   -0.6545   -0.3154    0.0000 C   0  0  0  0  0  0  0  0  0  0  0  0
   -0.9636   -1.0803    0.0000 C   0  0  0  0  0  0  0  0  0  0  0  0
   -1.7806   -1.1952    0.0000 C   0  0  0  0  0  0  0  0  0  0  0  0
   -2.2885   -0.5450    0.0000 C   0  0  0  0  0  0  0  0  0  0  0  0
   -1.9794    0.2199    0.0000 C   0  0  0  0  0  0  0  0  0  0  0  0
   -1.1625    0.3347    0.0000 C   0  0  0  0  0  0  0  0  0  0  0  0
   -0.0925    0.5840    0.0000 C   0  0  0  0  0  0  0  0  0  0  0  0
    0.4595    1.1971    0.0000 C   0  0  0  0  0  0  0  0  0  0  0  0
  1  2  1  0  0  0  0
  2  3  4  0  0  0  0
  3  4  4  0  0  0  0
  4  5  4  0  0  0  0
  5  6  4  0  0  0  0
  6  7  4  0  0  0  0
  2  7  4  0  0  0  0
  6  8  4  0  0  0  0
  8  9  1  0  0  0  0
  9 10  2  0  0  0  0
  9 11  1  0  0  0  0
  8 12  4  0  0  0  0
 12 13  4  0  0  0  0
  5 13  4  0  0  0  0
 13 14  1  0  0  0  0
 14 15  1  0  0  0  0
 15 16  1  6  0  0  0
 16 17  1  0  0  0  0
 17 18  2  0  0  0  0
 17 19  1  0  0  0  0
 19 20  4  0  0  0  0
 20 21  1  0  0  0  0
 20 22  4  0  0  0  0
 22 23  4  0  0  0  0
 23 24  1  0  0  0  0
 24 25  4  0  0  0  0
 25 26  4  0  0  0  0
 26 27  4  0  0  0  0
 27 28  4  0  0  0  0
 24 28  4  0  0  0  0
 23 29  4  0  0  0  0
 29 30  4  0  0  0  0
 19 30  4  0  0  0  0
 30 31  1  0  0  0  0
 15 32  1  1  0  0  0
 32 33  4  0  0  0  0
 33 34  4  0  0  0  0
 34 35  4  0  0  0  0
 35 36  4  0  0  0  0
 36 37  4  0  0  0  0
 32 37  4  0  0  0  0
 15 38  1  0  0  0  0
 38 39  1  0  0  0  0
 12 39  1  0  0  0  0
M  END
>  <CdId>
358301

>  <Mol Weight>
561.419

>  <Formula>
C28H22Cl2N6O3

>  <cmpd_chemblid>
CHEMBL3629113

>  <std_type>
Ki

>  <std_value>
8.6

>  <std_unit>
nM

>  <target_id>
CHEMBL2016

>  <target_name>
Coagulation factor IX

>  <organism>
Homo sapiens

>  <target_type>
SINGLE PROTEIN

$$$$

  Mrv0541 08052111042D          

 40 44  0  0  1  0            999 V2000
    3.9849    3.9849    0.0000 C   0  0  0  0  0  0  0  0  0  0  0  0
    4.3974    3.2704    0.0000 C   0  0  2  0  0  0  0  0  0  0  0  0
    5.2224    3.2704    0.0000 C   0  0  0  0  0  0  0  0  0  0  0  0
    5.6349    2.5559    0.0000 C   0  0  0  0  0  0  0  0  0  0  0  0
    6.4599    2.5559    0.0000 C   0  0  0  0  0  0  0  0  0  0  0  0
    6.8724    1.8414    0.0000 C   0  0  2  0  0  0  0  0  0  0  0  0
    7.6974    1.8414    0.0000 N   0  0  0  0  0  0  0  0  0  0  0  0
    8.1099    2.5559    0.0000 C   0  0  0  0  0  0  0  0  0  0  0  0
    8.9349    2.5559    0.0000 C   0  0  0  0  0  0  0  0  0  0  0  0
    9.3474    1.8414    0.0000 C   0  0  0  0  0  0  0  0  0  0  0  0
   10.1724    1.8414    0.0000 C   0  0  0  0  0  0  0  0  0  0  0  0
   10.5849    2.5559    0.0000 C   0  0  0  0  0  0  0  0  0  0  0  0
   10.1724    3.2704    0.0000 F   0  0  0  0  0  0  0  0  0  0  0  0
   11.4099    2.5559    0.0000 C   0  0  0  0  0  0  0  0  0  0  0  0
   11.8224    1.8414    0.0000 C   0  0  0  0  0  0  0  0  0  0  0  0
   11.4099    1.1270    0.0000 C   0  0  0  0  0  0  0  0  0  0  0  0
   11.8224    0.4125    0.0000 Cl  0  0  0  0  0  0  0  0  0  0  0  0
   10.5849    1.1270    0.0000 C   0  0  0  0  0  0  0  0  0  0  0  0
   10.1724    0.4125    0.0000 F   0  0  0  0  0  0  0  0  0  0  0  0
    8.9349    1.1270    0.0000 C   0  0  0  0  0  0  0  0  0  0  0  0
    8.1099    1.1270    0.0000 C   0  0  0  0  0  0  0  0  0  0  0  0
    7.6974    0.4125    0.0000 O   0  0  0  0  0  0  0  0  0  0  0  0
    6.4599    1.1270    0.0000 C   0  0  0  0  0  0  0  0  0  0  0  0
    5.6349    1.1270    0.0000 C   0  0  0  0  0  0  0  0  0  0  0  0
    5.2224    0.4125    0.0000 C   0  0  0  0  0  0  0  0  0  0  0  0
    5.6349   -0.3020    0.0000 C   0  0  0  0  0  0  0  0  0  0  0  0
    6.4599   -0.3020    0.0000 C   0  0  0  0  0  0  0  0  0  0  0  0
    6.8724    0.4125    0.0000 N   0  0  0  0  0  0  0  0  0  0  0  0
    4.3974    0.4125    0.0000 C   0  0  0  0  0  0  0  0  0  0  0  0
    3.9849   -0.3020    0.0000 C   0  0  0  0  0  0  0  0  0  0  0  0
    3.1599   -0.3020    0.0000 C   0  0  0  0  0  0  0  0  0  0  0  0
    2.7474   -1.0164    0.0000 C   0  0  0  0  0  0  0  0  0  0  0  0
    3.1599   -1.7309    0.0000 O   0  0  0  0  0  0  0  0  0  0  0  0
    1.9224   -1.0164    0.0000 O   0  0  0  0  0  0  0  0  0  0  0  0
    2.7474    0.4125    0.0000 C   0  0  0  0  0  0  0  0  0  0  0  0
    3.1599    1.1270    0.0000 C   0  0  0  0  0  0  0  0  0  0  0  0
    3.9849    1.1270    0.0000 C   0  0  0  0  0  0  0  0  0  0  0  0
    4.3974    1.8414    0.0000 N   0  0  0  0  0  0  0  0  0  0  0  0
    3.9849    2.5559    0.0000 C   0  0  0  0  0  0  0  0  0  0  0  0
    3.1599    2.5559    0.0000 O   0  0  0  0  0  0  0  0  0  0  0  0
  2  1  1  6  0  0  0
  2  3  1  0  0  0  0
  3  4  1  0  0  0  0
  4  5  1  0  0  0  0
  5  6  1  0  0  0  0
  6  7  1  6  0  0  0
  7  8  1  0  0  0  0
  8  9  1  0  0  0  0
  9 10  1  0  0  0  0
 10 11  1  0  0  0  0
 11 12  4  0  0  0  0
 12 13  1  0  0  0  0
 12 14  4  0  0  0  0
 14 15  4  0  0  0  0
 15 16  4  0  0  0  0
 16 17  1  0  0  0  0
 16 18  4  0  0  0  0
 11 18  4  0  0  0  0
 18 19  1  0  0  0  0
 10 20  2  0  0  0  0
 20 21  1  0  0  0  0
  7 21  1  0  0  0  0
 21 22  2  0  0  0  0
  6 23  1  0  0  0  0
 23 24  4  0  0  0  0
 24 25  4  0  0  0  0
 25 26  4  0  0  0  0
 26 27  4  0  0  0  0
 27 28  4  0  0  0  0
 23 28  4  0  0  0  0
 25 29  1  0  0  0  0
 29 30  4  0  0  0  0
 30 31  4  0  0  0  0
 31 32  1  0  0  0  0
 32 33  2  0  0  0  0
 32 34  1  0  0  0  0
 31 35  4  0  0  0  0
 35 36  4  0  0  0  0
 36 37  4  0  0  0  0
 29 37  4  0  0  0  0
 37 38  1  0  0  0  0
 38 39  1  0  0  0  0
  2 39  1  0  0  0  0
 39 40  2  0  0  0  0
M  END
>  <CdId>
358302

>  <Mol Weight>
565.995

>  <Formula>
C30H26ClF2N3O4

>  <cmpd_chemblid>
CHEMBL4114878

>  <std_type>
Ki

>  <std_value>
2.45

>  <std_unit>
nM

>  <target_id>
CHEMBL2016

>  <target_name>
Coagulation factor IX

>  <organism>
Homo sapiens

>  <target_type>
SINGLE PROTEIN

$$$$

  Mrv0541 08052111042D          

 37 40  0  0  1  0            999 V2000
   -6.0858    4.6798    0.0000 C   0  0  0  0  0  0  0  0  0  0  0  0
   -5.2653    4.7660    0.0000 N   0  0  0  0  0  0  0  0  0  0  0  0
   -4.9297    5.5197    0.0000 C   0  0  0  0  0  0  0  0  0  0  0  0
   -4.7804    4.0986    0.0000 C   0  0  0  0  0  0  0  0  0  0  0  0
   -3.9599    4.1848    0.0000 N   0  0  0  0  0  0  0  0  0  0  0  0
   -3.4749    3.5174    0.0000 C   0  0  0  0  0  0  0  0  0  0  0  0
   -3.8105    2.7637    0.0000 C   0  0  0  0  0  0  0  0  0  0  0  0
   -3.3256    2.0962    0.0000 S   0  0  0  0  0  0  0  0  0  0  0  0
   -3.9930    1.6113    0.0000 O   0  0  0  0  0  0  0  0  0  0  0  0
   -2.6581    2.5812    0.0000 O   0  0  0  0  0  0  0  0  0  0  0  0
   -2.8407    1.4288    0.0000 N   0  0  0  0  0  0  0  0  0  0  0  0
   -2.0202    1.5150    0.0000 C   0  0  1  0  0  0  0  0  0  0  0  0
   -1.6077    2.2295    0.0000 C   0  0  0  0  0  0  0  0  0  0  0  0
   -0.8007    2.0580    0.0000 C   0  0  0  0  0  0  0  0  0  0  0  0
   -0.7145    1.2375    0.0000 N   0  0  0  0  0  0  0  0  0  0  0  0
    0.0000    0.8250    0.0000 C   0  0  2  0  0  0  0  0  0  0  0  0
    0.0000    0.0000    0.0000 C   0  0  0  0  0  0  0  0  0  0  0  0
    0.7145   -0.4125    0.0000 C   0  0  0  0  0  0  0  0  0  0  0  0
    1.4289    0.0000    0.0000 C   0  0  0  0  0  0  0  0  0  0  0  0
    2.1434   -0.4125    0.0000 C   0  0  0  0  0  0  0  0  0  0  0  0
    2.8579    0.0000    0.0000 C   0  0  0  0  0  0  0  0  0  0  0  0
    3.5724   -0.4125    0.0000 C   0  0  0  0  0  0  0  0  0  0  0  0
    3.5724   -1.2375    0.0000 N   0  0  0  0  0  0  0  0  0  0  0  0
    2.8579   -1.6500    0.0000 C   0  0  0  0  0  0  0  0  0  0  0  0
    2.8579   -2.4750    0.0000 N   0  0  0  0  0  0  0  0  0  0  0  0
    2.1434   -1.2375    0.0000 C   0  0  0  0  0  0  0  0  0  0  0  0
    1.4289   -1.6500    0.0000 C   0  0  0  0  0  0  0  0  0  0  0  0
    0.7145   -1.2375    0.0000 C   0  0  0  0  0  0  0  0  0  0  0  0
    0.0000   -1.6500    0.0000 F   0  0  0  0  0  0  0  0  0  0  0  0
    0.7145    1.2375    0.0000 C   0  0  0  0  0  0  0  0  0  0  0  0
    0.7145    2.0625    0.0000 O   0  0  0  0  0  0  0  0  0  0  0  0
    1.4289    0.8250    0.0000 O   0  0  0  0  0  0  0  0  0  0  0  0
   -1.4681    0.9019    0.0000 C   0  0  0  0  0  0  0  0  0  0  0  0
   -1.6397    0.0950    0.0000 O   0  0  0  0  0  0  0  0  0  0  0  0
   -4.6310    2.6774    0.0000 C   0  0  0  0  0  0  0  0  0  0  0  0
   -5.1159    3.3449    0.0000 C   0  0  0  0  0  0  0  0  0  0  0  0
   -5.9364    3.2586    0.0000 Cl  0  0  0  0  0  0  0  0  0  0  0  0
  1  2  1  0  0  0  0
  2  3  1  0  0  0  0
  2  4  1  0  0  0  0
  4  5  4  0  0  0  0
  5  6  4  0  0  0  0
  6  7  4  0  0  0  0
  7  8  1  0  0  0  0
  8  9  2  0  0  0  0
  8 10  2  0  0  0  0
  8 11  1  0  0  0  0
 12 11  1  1  0  0  0
 12 13  1  0  0  0  0
 13 14  1  0  0  0  0
 14 15  1  0  0  0  0
 16 15  1  1  0  0  0
 16 17  1  0  0  0  0
 17 18  1  0  0  0  0
 18 19  4  0  0  0  0
 19 20  4  0  0  0  0
 20 21  4  0  0  0  0
 21 22  4  0  0  0  0
 22 23  4  0  0  0  0
 23 24  4  0  0  0  0
 24 25  1  0  0  0  0
 24 26  4  0  0  0  0
 20 26  4  0  0  0  0
 26 27  4  0  0  0  0
 27 28  4  0  0  0  0
 18 28  4  0  0  0  0
 28 29  1  0  0  0  0
 16 30  1  0  0  0  0
 30 31  2  0  0  0  0
 30 32  1  0  0  0  0
 15 33  1  0  0  0  0
 12 33  1  0  0  0  0
 33 34  2  0  0  0  0
  7 35  4  0  0  0  0
 35 36  4  0  0  0  0
  4 36  4  0  0  0  0
 36 37  1  0  0  0  0
M  END
>  <CdId>
358304

>  <Mol Weight>
550.99

>  <Formula>
C23H24ClFN6O5S

>  <cmpd_chemblid>
CHEMBL3938852

>  <std_type>
Ki

>  <std_value>
145.0

>  <std_unit>
nM

>  <target_id>
CHEMBL2016

>  <target_name>
Coagulation factor IX

>  <organism>
Homo sapiens

>  <target_type>
SINGLE PROTEIN

$$$$

  Mrv0541 08052111042D          

 38 42  0  0  1  0            999 V2000
    3.4990    1.1104    0.0000 C   0  0  0  0  0  0  0  0  0  0  0  0
    2.7845    0.6979    0.0000 O   0  0  0  0  0  0  0  0  0  0  0  0
    2.0701    1.1104    0.0000 C   0  0  0  0  0  0  0  0  0  0  0  0
    1.3556    0.6979    0.0000 C   0  0  0  0  0  0  0  0  0  0  0  0
    0.6411    1.1104    0.0000 C   0  0  0  0  0  0  0  0  0  0  0  0
   -0.1435    0.8555    0.0000 N   0  0  0  0  0  0  0  0  0  0  0  0
   -0.6284    1.5229    0.0000 C   0  0  0  0  0  0  0  0  0  0  0  0
   -1.4534    1.5229    0.0000 C   0  0  1  0  0  0  0  0  0  0  0  0
   -1.8659    0.8085    0.0000 C   0  0  0  0  0  0  0  0  0  0  0  0
   -2.6909    0.8085    0.0000 N   0  0  0  0  0  0  0  0  0  0  0  0
   -3.1034    0.0940    0.0000 C   0  0  0  0  0  0  0  0  0  0  0  0
   -2.6909   -0.6205    0.0000 O   0  0  0  0  0  0  0  0  0  0  0  0
   -3.9284    0.0940    0.0000 C   0  0  0  0  0  0  0  0  0  0  0  0
   -4.3409   -0.6205    0.0000 C   0  0  0  0  0  0  0  0  0  0  0  0
   -3.9284   -1.3349    0.0000 Cl  0  0  0  0  0  0  0  0  0  0  0  0
   -5.1659   -0.6205    0.0000 C   0  0  0  0  0  0  0  0  0  0  0  0
   -5.5784    0.0940    0.0000 C   0  0  0  0  0  0  0  0  0  0  0  0
   -6.4034    0.0940    0.0000 N   0  0  0  0  0  0  0  0  0  0  0  0
   -6.8884   -0.5734    0.0000 C   0  0  0  0  0  0  0  0  0  0  0  0
   -7.6730   -0.3185    0.0000 N   0  0  0  0  0  0  0  0  0  0  0  0
   -7.6730    0.5065    0.0000 C   0  0  0  0  0  0  0  0  0  0  0  0
   -8.3404    0.9914    0.0000 C   0  0  0  0  0  0  0  0  0  0  0  0
   -6.8884    0.7614    0.0000 N   0  0  0  0  0  0  0  0  0  0  0  0
   -5.1659    0.8085    0.0000 C   0  0  0  0  0  0  0  0  0  0  0  0
   -4.3409    0.8085    0.0000 C   0  0  0  0  0  0  0  0  0  0  0  0
   -3.9284    1.5229    0.0000 Cl  0  0  0  0  0  0  0  0  0  0  0  0
   -1.8659    2.2374    0.0000 C   0  0  0  0  0  0  0  0  0  0  0  0
   -2.6909    2.2374    0.0000 C   0  0  0  0  0  0  0  0  0  0  0  0
   -3.1034    2.9519    0.0000 C   0  0  0  0  0  0  0  0  0  0  0  0
   -2.6909    3.6664    0.0000 C   0  0  0  0  0  0  0  0  0  0  0  0
   -1.8659    3.6664    0.0000 C   0  0  0  0  0  0  0  0  0  0  0  0
   -1.4534    4.3808    0.0000 F   0  0  0  0  0  0  0  0  0  0  0  0
   -1.4534    2.9519    0.0000 C   0  0  0  0  0  0  0  0  0  0  0  0
   -0.1435    2.1904    0.0000 N   0  0  0  0  0  0  0  0  0  0  0  0
    0.6411    1.9354    0.0000 C   0  0  0  0  0  0  0  0  0  0  0  0
    1.3556    2.3479    0.0000 C   0  0  0  0  0  0  0  0  0  0  0  0
    2.0701    1.9354    0.0000 C   0  0  0  0  0  0  0  0  0  0  0  0
    2.7845    2.3479    0.0000 Cl  0  0  0  0  0  0  0  0  0  0  0  0
  1  2  1  0  0  0  0
  2  3  1  0  0  0  0
  3  4  4  0  0  0  0
  4  5  4  0  0  0  0
  5  6  4  0  0  0  0
  6  7  4  0  0  0  0
  7  8  1  0  0  0  0
  8  9  1  0  0  0  0
  9 10  1  0  0  0  0
 10 11  1  0  0  0  0
 11 12  2  0  0  0  0
 11 13  1  0  0  0  0
 13 14  4  0  0  0  0
 14 15  1  0  0  0  0
 14 16  4  0  0  0  0
 16 17  4  0  0  0  0
 17 18  1  0  0  0  0
 18 19  4  0  0  0  0
 19 20  4  0  0  0  0
 20 21  4  0  0  0  0
 21 22  1  0  0  0  0
 21 23  4  0  0  0  0
 18 23  4  0  0  0  0
 17 24  4  0  0  0  0
 24 25  4  0  0  0  0
 13 25  4  0  0  0  0
 25 26  1  0  0  0  0
  8 27  1  1  0  0  0
 27 28  4  0  0  0  0
 28 29  4  0  0  0  0
 29 30  4  0  0  0  0
 30 31  4  0  0  0  0
 31 32  1  0  0  0  0
 31 33  4  0  0  0  0
 27 33  4  0  0  0  0
  7 34  4  0  0  0  0
 34 35  4  0  0  0  0
  5 35  4  0  0  0  0
 35 36  4  0  0  0  0
 36 37  4  0  0  0  0
  3 37  4  0  0  0  0
 37 38  1  0  0  0  0
M  STY  1   1 DAT
M  SAL   1  1  34
M  SDT   1 MRV_IMPLICIT_H                                        
M  SDD   1     0.0000    0.0000    DR    ALL  0       0  
M  SED   1 IMPL_H1
M  END
>  <CdId>
358305

>  <Mol Weight>
573.833

>  <Formula>
C26H20Cl3FN6O2

>  <cmpd_chemblid>
CHEMBL3627894

>  <std_type>
Ki

>  <std_value>
2.9

>  <std_unit>
nM

>  <target_id>
CHEMBL2016

>  <target_name>
Coagulation factor IX

>  <organism>
Homo sapiens

>  <target_type>
SINGLE PROTEIN

$$$$

  Mrv0541 08052111042D          

 38 43  0  0  0  0            999 V2000
    4.2010   -5.1401    0.0000 N   0  0  0  0  0  0  0  0  0  0  0  0
    3.3760   -5.1401    0.0000 C   0  0  0  0  0  0  0  0  0  0  0  0
    2.9635   -4.4256    0.0000 N   0  0  0  0  0  0  0  0  0  0  0  0
    2.9635   -5.8546    0.0000 C   0  0  0  0  0  0  0  0  0  0  0  0
    3.3760   -6.5690    0.0000 C   0  0  0  0  0  0  0  0  0  0  0  0
    2.9635   -7.2835    0.0000 C   0  0  0  0  0  0  0  0  0  0  0  0
    2.1385   -7.2835    0.0000 C   0  0  0  0  0  0  0  0  0  0  0  0
    1.7260   -6.5690    0.0000 C   0  0  0  0  0  0  0  0  0  0  0  0
    0.9010   -6.5690    0.0000 N   0  0  0  0  0  0  0  0  0  0  0  0
    0.4161   -7.2365    0.0000 N   0  0  0  0  0  0  0  0  0  0  0  0
   -0.3686   -6.9815    0.0000 C   0  0  0  0  0  0  0  0  0  0  0  0
   -1.0360   -7.4664    0.0000 C   0  0  0  0  0  0  0  0  0  0  0  0
   -0.9498   -8.2869    0.0000 C   0  0  0  0  0  0  0  0  0  0  0  0
   -1.6172   -8.7718    0.0000 C   0  0  0  0  0  0  0  0  0  0  0  0
   -2.3709   -8.4363    0.0000 C   0  0  0  0  0  0  0  0  0  0  0  0
   -2.4571   -7.6158    0.0000 N   0  0  0  0  0  0  0  0  0  0  0  0
   -1.7897   -7.1309    0.0000 C   0  0  0  0  0  0  0  0  0  0  0  0
   -0.3686   -6.1565    0.0000 C   0  0  0  0  0  0  0  0  0  0  0  0
    0.4161   -5.9016    0.0000 C   0  0  0  0  0  0  0  0  0  0  0  0
    0.6710   -5.1170    0.0000 C   0  0  0  0  0  0  0  0  0  0  0  0
    1.4780   -4.9454    0.0000 O   0  0  0  0  0  0  0  0  0  0  0  0
    0.1190   -4.5039    0.0000 N   0  0  0  0  0  0  0  0  0  0  0  0
    0.3739   -3.7192    0.0000 C   0  0  0  0  0  0  0  0  0  0  0  0
   -0.1781   -3.1062    0.0000 C   0  0  0  0  0  0  0  0  0  0  0  0
    0.0768   -2.3215    0.0000 C   0  0  0  0  0  0  0  0  0  0  0  0
    0.8838   -2.1500    0.0000 C   0  0  0  0  0  0  0  0  0  0  0  0
    1.1387   -1.3654    0.0000 N   0  0  0  0  0  0  0  0  0  0  0  0
    0.6538   -0.6979    0.0000 C   0  0  0  0  0  0  0  0  0  0  0  0
    1.1387   -0.0305    0.0000 N   0  0  0  0  0  0  0  0  0  0  0  0
    1.9233   -0.2854    0.0000 C   0  0  0  0  0  0  0  0  0  0  0  0
    2.6378    0.1271    0.0000 C   0  0  0  0  0  0  0  0  0  0  0  0
    3.3523   -0.2854    0.0000 C   0  0  0  0  0  0  0  0  0  0  0  0
    3.3523   -1.1104    0.0000 C   0  0  0  0  0  0  0  0  0  0  0  0
    2.6378   -1.5229    0.0000 C   0  0  0  0  0  0  0  0  0  0  0  0
    1.9233   -1.1104    0.0000 C   0  0  0  0  0  0  0  0  0  0  0  0
    1.4358   -2.7631    0.0000 C   0  0  0  0  0  0  0  0  0  0  0  0
    1.1809   -3.5477    0.0000 C   0  0  0  0  0  0  0  0  0  0  0  0
    2.1385   -5.8546    0.0000 C   0  0  0  0  0  0  0  0  0  0  0  0
  1  2  2  0  0  0  0
  2  3  1  0  0  0  0
  2  4  1  0  0  0  0
  4  5  4  0  0  0  0
  5  6  4  0  0  0  0
  6  7  4  0  0  0  0
  7  8  4  0  0  0  0
  8  9  1  0  0  0  0
  9 10  4  0  0  0  0
 10 11  4  0  0  0  0
 11 12  1  0  0  0  0
 12 13  4  0  0  0  0
 13 14  4  0  0  0  0
 14 15  4  0  0  0  0
 15 16  4  0  0  0  0
 16 17  4  0  0  0  0
 12 17  4  0  0  0  0
 11 18  4  0  0  0  0
 18 19  4  0  0  0  0
  9 19  4  0  0  0  0
 19 20  1  0  0  0  0
 20 21  2  0  0  0  0
 20 22  1  0  0  0  0
 22 23  1  0  0  0  0
 23 24  4  0  0  0  0
 24 25  4  0  0  0  0
 25 26  4  0  0  0  0
 26 27  1  0  0  0  0
 27 28  4  0  0  0  0
 28 29  4  0  0  0  0
 29 30  4  0  0  0  0
 30 31  4  0  0  0  0
 31 32  4  0  0  0  0
 32 33  4  0  0  0  0
 33 34  4  0  0  0  0
 34 35  4  0  0  0  0
 30 35  4  0  0  0  0
 27 35  4  0  0  0  0
 26 36  4  0  0  0  0
 36 37  4  0  0  0  0
 23 37  4  0  0  0  0
  8 38  4  0  0  0  0
  4 38  4  0  0  0  0
M  END
>  <CdId>
358307

>  <Mol Weight>
498.538

>  <Formula>
C29H22N8O

>  <cmpd_chemblid>
CHEMBL183002

>  <std_type>
Ki

>  <std_value>
5.5

>  <std_unit>
nM

>  <target_id>
CHEMBL2016

>  <target_name>
Coagulation factor IX

>  <organism>
Homo sapiens

>  <target_type>
SINGLE PROTEIN

$$$$

  Mrv0541 08052111042D          

 40 42  0  0  1  0            999 V2000
   -2.2918    1.7945    0.0000 C   0  0  0  0  0  0  0  0  0  0  0  0
   -2.5468    1.0098    0.0000 O   0  0  0  0  0  0  0  0  0  0  0  0
   -1.9947    0.3967    0.0000 C   0  0  0  0  0  0  0  0  0  0  0  0
   -1.1878    0.5683    0.0000 O   0  0  0  0  0  0  0  0  0  0  0  0
   -2.2497   -0.3879    0.0000 C   0  0  2  0  0  0  0  0  0  0  0  0
   -3.0566   -0.5594    0.0000 C   0  0  0  0  0  0  0  0  0  0  0  0
   -3.3116   -1.3440    0.0000 C   0  0  0  0  0  0  0  0  0  0  0  0
   -2.7596   -1.9571    0.0000 C   0  0  0  0  0  0  0  0  0  0  0  0
   -1.9526   -1.7856    0.0000 C   0  0  0  0  0  0  0  0  0  0  0  0
   -1.6976   -1.0010    0.0000 C   0  0  0  0  0  0  0  0  0  0  0  0
   -0.8907   -0.8294    0.0000 N   0  0  0  0  0  0  0  0  0  0  0  0
   -0.6357   -0.0448    0.0000 C   0  0  0  0  0  0  0  0  0  0  0  0
   -0.7220    0.7757    0.0000 O   0  0  0  0  0  0  0  0  0  0  0  0
    0.1712    0.1267    0.0000 C   0  0  0  0  0  0  0  0  0  0  0  0
    0.7233   -0.4864    0.0000 C   0  0  0  0  0  0  0  0  0  0  0  0
    0.4683   -1.2710    0.0000 C   0  0  0  0  0  0  0  0  0  0  0  0
    1.0204   -1.8841    0.0000 C   0  0  0  0  0  0  0  0  0  0  0  0
    0.7654   -2.6687    0.0000 C   0  0  0  0  0  0  0  0  0  0  0  0
   -0.0415   -2.8403    0.0000 C   0  0  0  0  0  0  0  0  0  0  0  0
   -0.5936   -2.2272    0.0000 C   0  0  0  0  0  0  0  0  0  0  0  0
   -0.3386   -1.4425    0.0000 C   0  0  0  0  0  0  0  0  0  0  0  0
    0.4262    0.9113    0.0000 C   0  0  0  0  0  0  0  0  0  0  0  0
   -0.0587    1.5788    0.0000 C   0  0  0  0  0  0  0  0  0  0  0  0
    0.4262    2.2462    0.0000 S   0  0  0  0  0  0  0  0  0  0  0  0
    1.2108    1.9913    0.0000 C   0  0  0  0  0  0  0  0  0  0  0  0
    1.9253    2.4038    0.0000 C   0  0  0  0  0  0  0  0  0  0  0  0
    2.6397    1.9913    0.0000 C   0  0  0  0  0  0  0  0  0  0  0  0
    2.6397    1.1663    0.0000 C   0  0  0  0  0  0  0  0  0  0  0  0
    3.3542    0.7538    0.0000 C   0  0  0  0  0  0  0  0  0  0  0  0
    3.3542   -0.0712    0.0000 N   0  0  0  0  0  0  0  0  0  0  0  0
    4.0687    1.1663    0.0000 N   0  0  0  0  0  0  0  0  0  0  0  0
    1.9253    0.7538    0.0000 C   0  0  0  0  0  0  0  0  0  0  0  0
    1.2108    1.1663    0.0000 C   0  0  0  0  0  0  0  0  0  0  0  0
    6.1828   -0.8839    0.0000 O   0  0  0  0  0  0  0  0  0  0  0  0
    6.8973   -0.4714    0.0000 C   0  0  0  0  0  0  0  0  0  0  0  0
    7.6117   -0.8839    0.0000 O   0  0  0  0  0  0  0  0  0  0  0  0
    6.8973    0.3536    0.0000 C   0  0  0  0  0  0  0  0  0  0  0  0
    6.8973    1.1786    0.0000 F   0  0  0  0  0  0  0  0  0  0  0  0
    7.7223    0.3536    0.0000 F   0  0  0  0  0  0  0  0  0  0  0  0
    6.0723    0.3536    0.0000 F   0  0  0  0  0  0  0  0  0  0  0  0
  1  2  1  0  0  0  0
  2  3  1  0  0  0  0
  3  4  2  0  0  0  0
  5  3  1  1  0  0  0
  5  6  1  0  0  0  0
  6  7  1  0  0  0  0
  7  8  1  0  0  0  0
  8  9  1  0  0  0  0
  9 10  1  0  0  0  0
  5 10  1  0  0  0  0
 10 11  1  0  0  0  0
 11 12  1  0  0  0  0
 12 13  2  0  0  0  0
 12 14  1  0  0  0  0
 14 15  1  0  0  0  0
 15 16  1  0  0  0  0
 16 17  4  0  0  0  0
 17 18  4  0  0  0  0
 18 19  4  0  0  0  0
 19 20  4  0  0  0  0
 20 21  4  0  0  0  0
 16 21  4  0  0  0  0
 14 22  1  0  0  0  0
 22 23  4  0  0  0  0
 23 24  4  0  0  0  0
 24 25  4  0  0  0  0
 25 26  4  0  0  0  0
 26 27  4  0  0  0  0
 27 28  4  0  0  0  0
 28 29  1  0  0  0  0
 29 30  2  0  0  0  0
 29 31  1  0  0  0  0
 28 32  4  0  0  0  0
 32 33  4  0  0  0  0
 22 33  4  0  0  0  0
 25 33  4  0  0  0  0
 34 35  2  0  0  0  0
 35 36  1  0  0  0  0
 35 37  1  0  0  0  0
 37 38  1  0  0  0  0
 37 39  1  0  0  0  0
 37 40  1  0  0  0  0
M  END
>  <CdId>
358309

>  <Mol Weight>
577.615

>  <Formula>
C28H30F3N3O5S

>  <cmpd_chemblid>
CHEMBL362640

>  <std_type>
Ki

>  <std_value>
140.0

>  <std_unit>
nM

>  <target_id>
CHEMBL2016

>  <target_name>
Coagulation factor IX

>  <organism>
Homo sapiens

>  <target_type>
SINGLE PROTEIN

$$$$

  Mrv0541 08052111042D          

 37 41  0  0  1  0            999 V2000
   -1.4066   -1.6301    0.0000 C   0  0  0  0  0  0  0  0  0  0  0  0
   -0.5996   -1.8016    0.0000 C   0  0  0  0  0  0  0  0  0  0  0  0
   -0.3446   -2.5862    0.0000 C   0  0  0  0  0  0  0  0  0  0  0  0
    0.4623   -2.7578    0.0000 C   0  0  0  0  0  0  0  0  0  0  0  0
    1.0144   -2.1447    0.0000 C   0  0  0  0  0  0  0  0  0  0  0  0
    1.8394   -2.1447    0.0000 C   0  0  0  0  0  0  0  0  0  0  0  0
    2.0943   -1.3601    0.0000 C   0  0  0  0  0  0  0  0  0  0  0  0
    1.4269   -0.8751    0.0000 N   0  0  0  0  0  0  0  0  0  0  0  0
    1.4269   -0.0501    0.0000 C   0  0  0  0  0  0  0  0  0  0  0  0
    0.7124    0.3624    0.0000 C   0  0  0  0  0  0  0  0  0  0  0  0
    0.7124    1.1874    0.0000 C   0  0  0  0  0  0  0  0  0  0  0  0
   -0.0021    1.5999    0.0000 O   0  0  0  0  0  0  0  0  0  0  0  0
    1.4269    1.5999    0.0000 O   0  0  0  0  0  0  0  0  0  0  0  0
    0.7594   -1.3601    0.0000 C   0  0  0  0  0  0  0  0  0  0  0  0
   -0.0476   -1.1885    0.0000 C   0  0  0  0  0  0  0  0  0  0  0  0
    2.9013   -1.1885    0.0000 C   0  0  0  0  0  0  0  0  0  0  0  0
    3.4533   -1.8016    0.0000 C   0  0  0  0  0  0  0  0  0  0  0  0
    3.1984   -2.5862    0.0000 C   0  0  1  0  0  0  0  0  0  0  0  0
    4.0153   -2.7011    0.0000 C   0  0  0  0  0  0  0  0  0  0  0  0
    3.2272   -3.4107    0.0000 N   0  0  0  0  0  0  0  0  0  0  0  0
    3.9556   -3.7981    0.0000 C   0  0  0  0  0  0  0  0  0  0  0  0
    4.6552   -3.3609    0.0000 O   0  0  0  0  0  0  0  0  0  0  0  0
    3.9844   -4.6226    0.0000 C   0  0  0  0  0  0  0  0  0  0  0  0
    4.7128   -5.0099    0.0000 C   0  0  0  0  0  0  0  0  0  0  0  0
    5.4124   -4.5727    0.0000 Cl  0  0  0  0  0  0  0  0  0  0  0  0
    4.7416   -5.8344    0.0000 C   0  0  0  0  0  0  0  0  0  0  0  0
    4.0420   -6.2715    0.0000 C   0  0  0  0  0  0  0  0  0  0  0  0
    4.0708   -7.0960    0.0000 N   0  0  0  0  0  0  0  0  0  0  0  0
    4.7547   -7.5574    0.0000 C   0  0  0  0  0  0  0  0  0  0  0  0
    4.5273   -8.3504    0.0000 N   0  0  0  0  0  0  0  0  0  0  0  0
    3.7028   -8.3792    0.0000 C   0  0  0  0  0  0  0  0  0  0  0  0
    3.2415   -9.0632    0.0000 C   0  0  0  0  0  0  0  0  0  0  0  0
    3.4206   -7.6040    0.0000 N   0  0  0  0  0  0  0  0  0  0  0  0
    3.3135   -5.8842    0.0000 C   0  0  0  0  0  0  0  0  0  0  0  0
    3.2847   -5.0597    0.0000 C   0  0  0  0  0  0  0  0  0  0  0  0
    2.5563   -4.6724    0.0000 Cl  0  0  0  0  0  0  0  0  0  0  0  0
    2.3914   -2.7578    0.0000 C   0  0  0  0  0  0  0  0  0  0  0  0
  1  2  1  0  0  0  0
  2  3  4  0  0  0  0
  3  4  4  0  0  0  0
  4  5  4  0  0  0  0
  5  6  4  0  0  0  0
  6  7  4  0  0  0  0
  7  8  4  0  0  0  0
  8  9  1  0  0  0  0
  9 10  1  0  0  0  0
 10 11  1  0  0  0  0
 11 12  2  0  0  0  0
 11 13  1  0  0  0  0
  8 14  4  0  0  0  0
  5 14  4  0  0  0  0
 14 15  4  0  0  0  0
  2 15  4  0  0  0  0
  7 16  1  0  0  0  0
 16 17  1  0  0  0  0
 17 18  1  0  0  0  0
 18 19  1  6  0  0  0
 18 20  1  1  0  0  0
 20 21  1  0  0  0  0
 21 22  2  0  0  0  0
 21 23  1  0  0  0  0
 23 24  4  0  0  0  0
 24 25  1  0  0  0  0
 24 26  4  0  0  0  0
 26 27  4  0  0  0  0
 27 28  1  0  0  0  0
 28 29  4  0  0  0  0
 29 30  4  0  0  0  0
 30 31  4  0  0  0  0
 31 32  1  0  0  0  0
 31 33  4  0  0  0  0
 28 33  4  0  0  0  0
 27 34  4  0  0  0  0
 34 35  4  0  0  0  0
 23 35  4  0  0  0  0
 35 36  1  0  0  0  0
 18 37  1  0  0  0  0
  6 37  1  0  0  0  0
M  END
>  <CdId>
358310

>  <Mol Weight>
540.441

>  <Formula>
C27H27Cl2N5O3

>  <cmpd_chemblid>
CHEMBL3628834

>  <std_type>
Ki

>  <std_value>
11.7

>  <std_unit>
nM

>  <target_id>
CHEMBL2016

>  <target_name>
Coagulation factor IX

>  <organism>
Homo sapiens

>  <target_type>
SINGLE PROTEIN

$$$$

  Mrv0541 08052111042D          

 42 46  0  0  1  0            999 V2000
   -1.6796   -1.5395    0.0000 C   0  0  0  0  0  0  0  0  0  0  0  0
   -1.2671   -0.8250    0.0000 C   0  0  0  0  0  0  0  0  0  0  0  0
   -0.4421   -0.8250    0.0000 O   0  0  0  0  0  0  0  0  0  0  0  0
   -1.6796   -0.1105    0.0000 C   0  0  0  0  0  0  0  0  0  0  0  0
   -2.5046   -0.1105    0.0000 C   0  0  0  0  0  0  0  0  0  0  0  0
   -2.9171    0.6039    0.0000 C   0  0  0  0  0  0  0  0  0  0  0  0
   -2.5046    1.3184    0.0000 C   0  0  0  0  0  0  0  0  0  0  0  0
   -2.9171    2.0329    0.0000 Cl  0  0  0  0  0  0  0  0  0  0  0  0
   -1.6796    1.3184    0.0000 C   0  0  0  0  0  0  0  0  0  0  0  0
   -1.2671    2.0329    0.0000 F   0  0  0  0  0  0  0  0  0  0  0  0
   -1.2671    0.6039    0.0000 C   0  0  0  0  0  0  0  0  0  0  0  0
   -0.4421    0.6039    0.0000 C   0  0  0  0  0  0  0  0  0  0  0  0
   -0.0296    1.3184    0.0000 C   0  0  0  0  0  0  0  0  0  0  0  0
    0.7954    1.3184    0.0000 C   0  0  0  0  0  0  0  0  0  0  0  0
    1.2079    2.0329    0.0000 O   0  0  0  0  0  0  0  0  0  0  0  0
    1.2079    0.6039    0.0000 N   0  0  0  0  0  0  0  0  0  0  0  0
    2.0329    0.6039    0.0000 C   0  0  1  0  0  0  0  0  0  0  0  0
    2.4454    1.3184    0.0000 C   0  0  0  0  0  0  0  0  0  0  0  0
    3.2704    1.3184    0.0000 C   0  0  0  0  0  0  0  0  0  0  0  0
    3.6829    2.0329    0.0000 C   0  0  0  0  0  0  0  0  0  0  0  0
    4.5079    2.0329    0.0000 C   0  0  0  0  0  0  0  0  0  0  0  0
    4.9204    2.7474    0.0000 C   0  0  0  0  0  0  0  0  0  0  0  0
    4.9204    1.3184    0.0000 C   0  0  0  0  0  0  0  0  0  0  0  0
    5.7454    1.3184    0.0000 O   0  0  0  0  0  0  0  0  0  0  0  0
    4.5079    0.6039    0.0000 N   0  0  0  0  0  0  0  0  0  0  0  0
    4.9204   -0.1105    0.0000 C   0  0  0  0  0  0  0  0  0  0  0  0
    5.7454   -0.1105    0.0000 C   0  0  0  0  0  0  0  0  0  0  0  0
    6.1579   -0.8250    0.0000 C   0  0  0  0  0  0  0  0  0  0  0  0
    6.9829   -0.8250    0.0000 C   0  0  0  0  0  0  0  0  0  0  0  0
    7.3954   -0.1105    0.0000 N   0  0  0  0  0  0  0  0  0  0  0  0
    7.3954   -1.5395    0.0000 O   0  0  0  0  0  0  0  0  0  0  0  0
    5.7454   -1.5395    0.0000 C   0  0  0  0  0  0  0  0  0  0  0  0
    4.9204   -1.5395    0.0000 C   0  0  0  0  0  0  0  0  0  0  0  0
    4.5079   -0.8250    0.0000 C   0  0  0  0  0  0  0  0  0  0  0  0
    3.6829   -0.8250    0.0000 C   0  0  0  0  0  0  0  0  0  0  0  0
    3.2704   -1.5395    0.0000 C   0  0  0  0  0  0  0  0  0  0  0  0
    2.4454   -1.5395    0.0000 C   0  0  0  0  0  0  0  0  0  0  0  0
    2.0329   -0.8250    0.0000 N   0  0  0  0  0  0  0  0  0  0  0  0
    2.4454   -0.1105    0.0000 C   0  0  0  0  0  0  0  0  0  0  0  0
    3.2704   -0.1105    0.0000 C   0  0  0  0  0  0  0  0  0  0  0  0
    0.7954   -0.1105    0.0000 C   0  0  0  0  0  0  0  0  0  0  0  0
   -0.0296   -0.1105    0.0000 C   0  0  0  0  0  0  0  0  0  0  0  0
  1  2  1  0  0  0  0
  2  3  2  0  0  0  0
  2  4  1  0  0  0  0
  4  5  4  0  0  0  0
  5  6  4  0  0  0  0
  6  7  4  0  0  0  0
  7  8  1  0  0  0  0
  7  9  4  0  0  0  0
  9 10  1  0  0  0  0
  9 11  4  0  0  0  0
  4 11  4  0  0  0  0
 11 12  1  0  0  0  0
 12 13  2  0  0  0  0
 13 14  1  0  0  0  0
 14 15  2  0  0  0  0
 14 16  1  0  0  0  0
 17 16  1  1  0  0  0
 17 18  1  0  0  0  0
 18 19  1  0  0  0  0
 19 20  1  0  0  0  0
 20 21  1  0  0  0  0
 21 22  1  0  0  0  0
 21 23  1  0  0  0  0
 23 24  2  0  0  0  0
 23 25  1  0  0  0  0
 25 26  1  0  0  0  0
 26 27  4  0  0  0  0
 27 28  4  0  0  0  0
 28 29  1  0  0  0  0
 29 30  1  0  0  0  0
 29 31  2  0  0  0  0
 28 32  4  0  0  0  0
 32 33  4  0  0  0  0
 33 34  4  0  0  0  0
 26 34  4  0  0  0  0
 34 35  1  0  0  0  0
 35 36  4  0  0  0  0
 36 37  4  0  0  0  0
 37 38  4  0  0  0  0
 38 39  4  0  0  0  0
 17 39  1  0  0  0  0
 39 40  4  0  0  0  0
 35 40  4  0  0  0  0
 16 41  1  0  0  0  0
 41 42  1  0  0  0  0
 12 42  1  0  0  0  0
M  END
>  <CdId>
358312

>  <Mol Weight>
589.056

>  <Formula>
C32H30ClFN4O4

>  <cmpd_chemblid>
CHEMBL3964855

>  <std_type>
Ki

>  <std_value>
4.17

>  <std_unit>
nM

>  <target_id>
CHEMBL2016

>  <target_name>
Coagulation factor IX

>  <organism>
Homo sapiens

>  <target_type>
SINGLE PROTEIN

$$$$

  Mrv0541 08052111042D          

 37 41  0  0  1  0            999 V2000
    3.9849    3.9849    0.0000 C   0  0  0  0  0  0  0  0  0  0  0  0
    4.3974    3.2704    0.0000 C   0  0  2  0  0  0  0  0  0  0  0  0
    5.2224    3.2704    0.0000 C   0  0  0  0  0  0  0  0  0  0  0  0
    5.6349    2.5559    0.0000 C   0  0  0  0  0  0  0  0  0  0  0  0
    6.4599    2.5559    0.0000 C   0  0  0  0  0  0  0  0  0  0  0  0
    6.8724    1.8414    0.0000 C   0  0  2  0  0  0  0  0  0  0  0  0
    7.6974    1.8414    0.0000 N   0  0  0  0  0  0  0  0  0  0  0  0
    8.1099    2.5559    0.0000 C   0  0  0  0  0  0  0  0  0  0  0  0
    8.9349    2.5559    0.0000 C   0  0  0  0  0  0  0  0  0  0  0  0
    9.3474    1.8414    0.0000 C   0  0  0  0  0  0  0  0  0  0  0  0
   10.1724    1.8414    0.0000 C   0  0  0  0  0  0  0  0  0  0  0  0
   10.5849    2.5559    0.0000 C   0  0  0  0  0  0  0  0  0  0  0  0
   10.1724    3.2704    0.0000 F   0  0  0  0  0  0  0  0  0  0  0  0
   11.4099    2.5559    0.0000 C   0  0  0  0  0  0  0  0  0  0  0  0
   11.8224    1.8414    0.0000 C   0  0  0  0  0  0  0  0  0  0  0  0
   11.4099    1.1270    0.0000 C   0  0  0  0  0  0  0  0  0  0  0  0
   11.8224    0.4125    0.0000 Cl  0  0  0  0  0  0  0  0  0  0  0  0
   10.5849    1.1270    0.0000 C   0  0  0  0  0  0  0  0  0  0  0  0
   10.1724    0.4125    0.0000 F   0  0  0  0  0  0  0  0  0  0  0  0
    8.9349    1.1270    0.0000 C   0  0  0  0  0  0  0  0  0  0  0  0
    8.1099    1.1270    0.0000 C   0  0  0  0  0  0  0  0  0  0  0  0
    7.6974    0.4125    0.0000 O   0  0  0  0  0  0  0  0  0  0  0  0
    6.4599    1.1270    0.0000 C   0  0  0  0  0  0  0  0  0  0  0  0
    5.6349    1.1270    0.0000 C   0  0  0  0  0  0  0  0  0  0  0  0
    5.2224    0.4125    0.0000 C   0  0  0  0  0  0  0  0  0  0  0  0
    5.6349   -0.3020    0.0000 C   0  0  0  0  0  0  0  0  0  0  0  0
    6.4599   -0.3020    0.0000 C   0  0  0  0  0  0  0  0  0  0  0  0
    6.8724    0.4125    0.0000 N   0  0  0  0  0  0  0  0  0  0  0  0
    4.3974    0.4125    0.0000 C   0  0  0  0  0  0  0  0  0  0  0  0
    3.9849   -0.3020    0.0000 C   0  0  0  0  0  0  0  0  0  0  0  0
    3.1599   -0.3020    0.0000 C   0  0  0  0  0  0  0  0  0  0  0  0
    2.7474    0.4125    0.0000 N   0  0  0  0  0  0  0  0  0  0  0  0
    3.1599    1.1270    0.0000 C   0  0  0  0  0  0  0  0  0  0  0  0
    3.9849    1.1270    0.0000 C   0  0  0  0  0  0  0  0  0  0  0  0
    4.3974    1.8414    0.0000 N   0  0  0  0  0  0  0  0  0  0  0  0
    3.9849    2.5559    0.0000 C   0  0  0  0  0  0  0  0  0  0  0  0
    3.1599    2.5559    0.0000 O   0  0  0  0  0  0  0  0  0  0  0  0
  2  1  1  6  0  0  0
  2  3  1  0  0  0  0
  3  4  1  0  0  0  0
  4  5  1  0  0  0  0
  5  6  1  0  0  0  0
  6  7  1  6  0  0  0
  7  8  1  0  0  0  0
  8  9  1  0  0  0  0
  9 10  1  0  0  0  0
 10 11  1  0  0  0  0
 11 12  4  0  0  0  0
 12 13  1  0  0  0  0
 12 14  4  0  0  0  0
 14 15  4  0  0  0  0
 15 16  4  0  0  0  0
 16 17  1  0  0  0  0
 16 18  4  0  0  0  0
 11 18  4  0  0  0  0
 18 19  1  0  0  0  0
 10 20  2  0  0  0  0
 20 21  1  0  0  0  0
  7 21  1  0  0  0  0
 21 22  2  0  0  0  0
  6 23  1  0  0  0  0
 23 24  4  0  0  0  0
 24 25  4  0  0  0  0
 25 26  4  0  0  0  0
 26 27  4  0  0  0  0
 27 28  4  0  0  0  0
 23 28  4  0  0  0  0
 25 29  1  0  0  0  0
 29 30  4  0  0  0  0
 30 31  4  0  0  0  0
 31 32  4  0  0  0  0
 32 33  4  0  0  0  0
 33 34  4  0  0  0  0
 29 34  4  0  0  0  0
 34 35  1  0  0  0  0
 35 36  1  0  0  0  0
  2 36  1  0  0  0  0
 36 37  2  0  0  0  0
M  END
>  <CdId>
358314

>  <Mol Weight>
522.974

>  <Formula>
C28H25ClF2N4O2

>  <cmpd_chemblid>
CHEMBL4109585

>  <std_type>
Ki

>  <std_value>
15.745

>  <std_unit>
nM

>  <target_id>
CHEMBL2016

>  <target_name>
Coagulation factor IX

>  <organism>
Homo sapiens

>  <target_type>
SINGLE PROTEIN

$$$$

  Mrv0541 08052111042D          

 31 34  0  0  0  0            999 V2000
    3.2789    7.0125    0.0000 C   0  0  0  0  0  0  0  0  0  0  0  0
    3.2789    6.1875    0.0000 O   0  0  0  0  0  0  0  0  0  0  0  0
    3.9934    5.7750    0.0000 C   0  0  0  0  0  0  0  0  0  0  0  0
    4.7079    6.1875    0.0000 C   0  0  0  0  0  0  0  0  0  0  0  0
    5.4223    5.7750    0.0000 C   0  0  0  0  0  0  0  0  0  0  0  0
    5.4223    4.9500    0.0000 C   0  0  0  0  0  0  0  0  0  0  0  0
    4.7079    4.5375    0.0000 C   0  0  0  0  0  0  0  0  0  0  0  0
    4.7079    3.7125    0.0000 N   0  0  0  0  0  0  0  0  0  0  0  0
    3.9934    3.3000    0.0000 C   0  0  0  0  0  0  0  0  0  0  0  0
    3.2789    3.7125    0.0000 O   0  0  0  0  0  0  0  0  0  0  0  0
    3.9934    2.4750    0.0000 C   0  0  0  0  0  0  0  0  0  0  0  0
    3.2789    2.0625    0.0000 O   0  0  0  0  0  0  0  0  0  0  0  0
    3.2789    1.2375    0.0000 C   0  0  0  0  0  0  0  0  0  0  0  0
    3.9934    0.8250    0.0000 C   0  0  0  0  0  0  0  0  0  0  0  0
    3.9934    0.0000    0.0000 C   0  0  0  0  0  0  0  0  0  0  0  0
    3.2789   -0.4125    0.0000 C   0  0  0  0  0  0  0  0  0  0  0  0
    2.5645    0.0000    0.0000 C   0  0  0  0  0  0  0  0  0  0  0  0
    1.7798   -0.2549    0.0000 S   0  0  0  0  0  0  0  0  0  0  0  0
    1.2949    0.4125    0.0000 C   0  0  0  0  0  0  0  0  0  0  0  0
    0.4699    0.4125    0.0000 C   0  0  0  0  0  0  0  0  0  0  0  0
    0.0574   -0.3020    0.0000 N   0  0  0  0  0  0  0  0  0  0  0  0
    0.0574    1.1270    0.0000 N   0  0  0  0  0  0  0  0  0  0  0  0
    1.7798    1.0799    0.0000 C   0  0  0  0  0  0  0  0  0  0  0  0
    2.5645    0.8250    0.0000 C   0  0  0  0  0  0  0  0  0  0  0  0
    4.7079    2.0625    0.0000 C   0  0  0  0  0  0  0  0  0  0  0  0
    5.4223    2.4750    0.0000 C   0  0  0  0  0  0  0  0  0  0  0  0
    6.1368    2.0625    0.0000 C   0  0  0  0  0  0  0  0  0  0  0  0
    6.1368    1.2375    0.0000 C   0  0  0  0  0  0  0  0  0  0  0  0
    5.4223    0.8250    0.0000 C   0  0  0  0  0  0  0  0  0  0  0  0
    4.7079    1.2375    0.0000 C   0  0  0  0  0  0  0  0  0  0  0  0
    3.9934    4.9500    0.0000 C   0  0  0  0  0  0  0  0  0  0  0  0
  1  2  1  0  0  0  0
  2  3  1  0  0  0  0
  3  4  4  0  0  0  0
  4  5  4  0  0  0  0
  5  6  4  0  0  0  0
  6  7  4  0  0  0  0
  7  8  1  0  0  0  0
  8  9  1  0  0  0  0
  9 10  2  0  0  0  0
  9 11  1  0  0  0  0
 11 12  1  0  0  0  0
 12 13  1  0  0  0  0
 13 14  4  0  0  0  0
 14 15  4  0  0  0  0
 15 16  4  0  0  0  0
 16 17  4  0  0  0  0
 17 18  4  0  0  0  0
 18 19  4  0  0  0  0
 19 20  1  0  0  0  0
 20 21  2  0  0  0  0
 20 22  1  0  0  0  0
 19 23  4  0  0  0  0
 23 24  4  0  0  0  0
 13 24  4  0  0  0  0
 17 24  4  0  0  0  0
 11 25  1  0  0  0  0
 25 26  4  0  0  0  0
 26 27  4  0  0  0  0
 27 28  4  0  0  0  0
 28 29  4  0  0  0  0
 29 30  4  0  0  0  0
 25 30  4  0  0  0  0
  7 31  4  0  0  0  0
  3 31  4  0  0  0  0
M  END
>  <CdId>
358315

>  <Mol Weight>
431.507

>  <Formula>
C24H21N3O3S

>  <cmpd_chemblid>
CHEMBL603671

>  <std_type>
Ki

>  <std_value>
130.0

>  <std_unit>
nM

>  <target_id>
CHEMBL2016

>  <target_name>
Coagulation factor IX

>  <organism>
Homo sapiens

>  <target_type>
SINGLE PROTEIN

$$$$

  Mrv0541 08052111042D          

 31 34  0  0  0  0            999 V2000
   -5.3649   -1.3480    0.0000 N   0  0  0  0  0  0  0  0  0  0  0  0
   -4.9524   -2.0625    0.0000 C   0  0  0  0  0  0  0  0  0  0  0  0
   -5.3649   -2.7770    0.0000 N   0  0  0  0  0  0  0  0  0  0  0  0
   -4.1274   -2.0625    0.0000 C   0  0  0  0  0  0  0  0  0  0  0  0
   -3.6425   -1.3951    0.0000 C   0  0  0  0  0  0  0  0  0  0  0  0
   -2.8579   -1.6500    0.0000 C   0  0  0  0  0  0  0  0  0  0  0  0
   -2.1434   -1.2375    0.0000 C   0  0  0  0  0  0  0  0  0  0  0  0
   -2.1434   -0.4125    0.0000 O   0  0  0  0  0  0  0  0  0  0  0  0
   -1.4289   -0.0000    0.0000 C   0  0  0  0  0  0  0  0  0  0  0  0
   -0.7145   -0.4125    0.0000 C   0  0  0  0  0  0  0  0  0  0  0  0
    0.0000   -0.0000    0.0000 N   0  0  0  0  0  0  0  0  0  0  0  0
    0.7145   -0.4125    0.0000 C   0  0  0  0  0  0  0  0  0  0  0  0
    0.7145   -1.2375    0.0000 O   0  0  0  0  0  0  0  0  0  0  0  0
    1.4289   -0.0000    0.0000 N   0  0  0  0  0  0  0  0  0  0  0  0
    2.1434   -0.4125    0.0000 C   0  0  0  0  0  0  0  0  0  0  0  0
    2.8579   -0.0000    0.0000 C   0  0  0  0  0  0  0  0  0  0  0  0
    3.5724   -0.4125    0.0000 C   0  0  0  0  0  0  0  0  0  0  0  0
    3.5724   -1.2375    0.0000 C   0  0  0  0  0  0  0  0  0  0  0  0
    2.8579   -1.6500    0.0000 C   0  0  0  0  0  0  0  0  0  0  0  0
    2.1434   -1.2375    0.0000 C   0  0  0  0  0  0  0  0  0  0  0  0
   -1.4289    0.8250    0.0000 C   0  0  0  0  0  0  0  0  0  0  0  0
   -2.1434    1.2375    0.0000 C   0  0  0  0  0  0  0  0  0  0  0  0
   -2.1434    2.0625    0.0000 C   0  0  0  0  0  0  0  0  0  0  0  0
   -1.4289    2.4750    0.0000 C   0  0  0  0  0  0  0  0  0  0  0  0
   -0.7145    2.0625    0.0000 C   0  0  0  0  0  0  0  0  0  0  0  0
   -0.7145    1.2375    0.0000 C   0  0  0  0  0  0  0  0  0  0  0  0
   -1.4289   -1.6500    0.0000 C   0  0  0  0  0  0  0  0  0  0  0  0
   -1.4289   -2.4750    0.0000 C   0  0  0  0  0  0  0  0  0  0  0  0
   -2.1434   -2.8875    0.0000 C   0  0  0  0  0  0  0  0  0  0  0  0
   -2.8579   -2.4750    0.0000 C   0  0  0  0  0  0  0  0  0  0  0  0
   -3.6425   -2.7299    0.0000 S   0  0  0  0  0  0  0  0  0  0  0  0
  1  2  2  0  0  0  0
  2  3  1  0  0  0  0
  2  4  1  0  0  0  0
  4  5  4  0  0  0  0
  5  6  4  0  0  0  0
  6  7  4  0  0  0  0
  7  8  1  0  0  0  0
  8  9  1  0  0  0  0
  9 10  1  0  0  0  0
 10 11  1  0  0  0  0
 11 12  1  0  0  0  0
 12 13  2  0  0  0  0
 12 14  1  0  0  0  0
 14 15  1  0  0  0  0
 15 16  4  0  0  0  0
 16 17  4  0  0  0  0
 17 18  4  0  0  0  0
 18 19  4  0  0  0  0
 19 20  4  0  0  0  0
 15 20  4  0  0  0  0
  9 21  1  0  0  0  0
 21 22  4  0  0  0  0
 22 23  4  0  0  0  0
 23 24  4  0  0  0  0
 24 25  4  0  0  0  0
 25 26  4  0  0  0  0
 21 26  4  0  0  0  0
  7 27  4  0  0  0  0
 27 28  4  0  0  0  0
 28 29  4  0  0  0  0
 29 30  4  0  0  0  0
  6 30  4  0  0  0  0
 30 31  4  0  0  0  0
  4 31  4  0  0  0  0
M  END
>  <CdId>
358317

>  <Mol Weight>
430.522

>  <Formula>
C24H22N4O2S

>  <cmpd_chemblid>
CHEMBL597570

>  <std_type>
Ki

>  <std_value>
29.0

>  <std_unit>
nM

>  <target_id>
CHEMBL2016

>  <target_name>
Coagulation factor IX

>  <organism>
Homo sapiens

>  <target_type>
SINGLE PROTEIN

$$$$

  Mrv0541 08052111042D          

 39 44  0  0  0  0            999 V2000
   10.2293    2.9548    0.0000 N   0  0  0  0  0  0  0  0  0  0  0  0
    9.5148    3.3673    0.0000 C   0  0  0  0  0  0  0  0  0  0  0  0
    9.5148    4.1923    0.0000 N   0  0  0  0  0  0  0  0  0  0  0  0
    8.8003    2.9548    0.0000 C   0  0  0  0  0  0  0  0  0  0  0  0
    8.8003    2.1298    0.0000 C   0  0  0  0  0  0  0  0  0  0  0  0
    8.0859    1.7173    0.0000 C   0  0  0  0  0  0  0  0  0  0  0  0
    7.3714    2.1298    0.0000 C   0  0  0  0  0  0  0  0  0  0  0  0
    6.5868    1.8748    0.0000 C   0  0  0  0  0  0  0  0  0  0  0  0
    6.1019    2.5423    0.0000 C   0  0  0  0  0  0  0  0  0  0  0  0
    6.5868    3.2097    0.0000 N   0  0  0  0  0  0  0  0  0  0  0  0
    6.3318    3.9943    0.0000 C   0  0  0  0  0  0  0  0  0  0  0  0
    5.5249    4.1659    0.0000 C   0  0  0  0  0  0  0  0  0  0  0  0
    5.2699    4.9505    0.0000 C   0  0  0  0  0  0  0  0  0  0  0  0
    4.4630    5.1220    0.0000 C   0  0  0  0  0  0  0  0  0  0  0  0
    4.2080    5.9066    0.0000 C   0  0  0  0  0  0  0  0  0  0  0  0
    4.7600    6.5197    0.0000 C   0  0  0  0  0  0  0  0  0  0  0  0
    5.5670    6.3482    0.0000 C   0  0  0  0  0  0  0  0  0  0  0  0
    5.8220    5.5636    0.0000 C   0  0  0  0  0  0  0  0  0  0  0  0
    6.8839    4.6074    0.0000 C   0  0  0  0  0  0  0  0  0  0  0  0
    7.6908    4.4359    0.0000 O   0  0  0  0  0  0  0  0  0  0  0  0
    6.6289    5.3921    0.0000 N   0  0  0  0  0  0  0  0  0  0  0  0
    7.1810    6.0052    0.0000 C   0  0  0  0  0  0  0  0  0  0  0  0
    6.9260    6.7898    0.0000 C   0  0  0  0  0  0  0  0  0  0  0  0
    7.4781    7.4029    0.0000 C   0  0  0  0  0  0  0  0  0  0  0  0
    8.2850    7.2313    0.0000 C   0  0  0  0  0  0  0  0  0  0  0  0
    8.8371    7.8444    0.0000 N   0  0  0  0  0  0  0  0  0  0  0  0
    8.6655    8.6514    0.0000 C   0  0  0  0  0  0  0  0  0  0  0  0
    9.3800    9.0639    0.0000 N   0  0  0  0  0  0  0  0  0  0  0  0
    9.9931    8.5119    0.0000 C   0  0  0  0  0  0  0  0  0  0  0  0
   10.8136    8.5981    0.0000 C   0  0  0  0  0  0  0  0  0  0  0  0
   11.2985    7.9307    0.0000 C   0  0  0  0  0  0  0  0  0  0  0  0
   10.9629    7.1770    0.0000 C   0  0  0  0  0  0  0  0  0  0  0  0
   10.1425    7.0908    0.0000 C   0  0  0  0  0  0  0  0  0  0  0  0
    9.6575    7.7582    0.0000 C   0  0  0  0  0  0  0  0  0  0  0  0
    8.5400    6.4467    0.0000 C   0  0  0  0  0  0  0  0  0  0  0  0
    7.9879    5.8336    0.0000 C   0  0  0  0  0  0  0  0  0  0  0  0
    8.2429    5.0490    0.0000 F   0  0  0  0  0  0  0  0  0  0  0  0
    7.3714    2.9548    0.0000 C   0  0  0  0  0  0  0  0  0  0  0  0
    8.0859    3.3673    0.0000 C   0  0  0  0  0  0  0  0  0  0  0  0
  1  2  2  0  0  0  0
  2  3  1  0  0  0  0
  2  4  1  0  0  0  0
  4  5  4  0  0  0  0
  5  6  4  0  0  0  0
  6  7  4  0  0  0  0
  7  8  4  0  0  0  0
  8  9  4  0  0  0  0
  9 10  4  0  0  0  0
 10 11  1  0  0  0  0
 11 12  1  0  0  0  0
 12 13  1  0  0  0  0
 13 14  4  0  0  0  0
 14 15  4  0  0  0  0
 15 16  4  0  0  0  0
 16 17  4  0  0  0  0
 17 18  4  0  0  0  0
 13 18  4  0  0  0  0
 11 19  1  0  0  0  0
 19 20  2  0  0  0  0
 19 21  1  0  0  0  0
 21 22  1  0  0  0  0
 22 23  4  0  0  0  0
 23 24  4  0  0  0  0
 24 25  4  0  0  0  0
 25 26  1  0  0  0  0
 26 27  4  0  0  0  0
 27 28  4  0  0  0  0
 28 29  4  0  0  0  0
 29 30  4  0  0  0  0
 30 31  4  0  0  0  0
 31 32  4  0  0  0  0
 32 33  4  0  0  0  0
 33 34  4  0  0  0  0
 29 34  4  0  0  0  0
 26 34  4  0  0  0  0
 25 35  4  0  0  0  0
 35 36  4  0  0  0  0
 22 36  4  0  0  0  0
 36 37  1  0  0  0  0
 10 38  4  0  0  0  0
  7 38  4  0  0  0  0
 38 39  4  0  0  0  0
  4 39  4  0  0  0  0
M  END
>  <CdId>
358318

>  <Mol Weight>
516.5682

>  <Formula>
C31H25FN6O

>  <cmpd_chemblid>
CHEMBL366135

>  <std_type>
Ki

>  <std_value>
300.0

>  <std_unit>
nM

>  <target_id>
CHEMBL2016

>  <target_name>
Coagulation factor IX

>  <organism>
Homo sapiens

>  <target_type>
SINGLE PROTEIN

$$$$

  Mrv0541 08052111042D          

 36 40  0  0  1  0            999 V2000
   -7.0582   -0.1664    0.0000 C   0  0  0  0  0  0  0  0  0  0  0  0
   -6.3907    0.3185    0.0000 C   0  0  0  0  0  0  0  0  0  0  0  0
   -6.3907    1.1435    0.0000 N   0  0  0  0  0  0  0  0  0  0  0  0
   -5.6061    1.3984    0.0000 C   0  0  0  0  0  0  0  0  0  0  0  0
   -5.1212    0.7310    0.0000 N   0  0  0  0  0  0  0  0  0  0  0  0
   -4.2962    0.7310    0.0000 C   0  0  0  0  0  0  0  0  0  0  0  0
   -3.8837    1.4455    0.0000 C   0  0  0  0  0  0  0  0  0  0  0  0
   -3.0587    1.4455    0.0000 C   0  0  0  0  0  0  0  0  0  0  0  0
   -2.6462    2.1599    0.0000 Cl  0  0  0  0  0  0  0  0  0  0  0  0
   -2.6462    0.7310    0.0000 C   0  0  0  0  0  0  0  0  0  0  0  0
   -1.8212    0.7310    0.0000 C   0  0  0  0  0  0  0  0  0  0  0  0
   -1.4087    1.4455    0.0000 O   0  0  0  0  0  0  0  0  0  0  0  0
   -1.4087    0.0165    0.0000 N   0  0  0  0  0  0  0  0  0  0  0  0
   -0.5837    0.0165    0.0000 C   0  0  0  0  0  0  0  0  0  0  0  0
   -0.1712   -0.6979    0.0000 C   0  0  1  0  0  0  0  0  0  0  0  0
   -0.5837   -1.4124    0.0000 C   0  0  0  0  0  0  0  0  0  0  0  0
   -0.1712   -2.1269    0.0000 C   0  0  0  0  0  0  0  0  0  0  0  0
   -0.5837   -2.8414    0.0000 C   0  0  0  0  0  0  0  0  0  0  0  0
   -1.4087   -2.8414    0.0000 C   0  0  0  0  0  0  0  0  0  0  0  0
   -1.8212   -2.1269    0.0000 C   0  0  0  0  0  0  0  0  0  0  0  0
   -2.6462   -2.1269    0.0000 F   0  0  0  0  0  0  0  0  0  0  0  0
   -1.4087   -1.4124    0.0000 C   0  0  0  0  0  0  0  0  0  0  0  0
    0.6538   -0.6979    0.0000 C   0  0  0  0  0  0  0  0  0  0  0  0
    1.1387   -0.0305    0.0000 N   0  0  0  0  0  0  0  0  0  0  0  0
    1.9233   -0.2854    0.0000 C   0  0  0  0  0  0  0  0  0  0  0  0
    2.6378    0.1271    0.0000 C   0  0  0  0  0  0  0  0  0  0  0  0
    3.3523   -0.2854    0.0000 C   0  0  0  0  0  0  0  0  0  0  0  0
    3.3523   -1.1104    0.0000 C   0  0  0  0  0  0  0  0  0  0  0  0
    4.0668   -1.5229    0.0000 Cl  0  0  0  0  0  0  0  0  0  0  0  0
    2.6378   -1.5229    0.0000 C   0  0  0  0  0  0  0  0  0  0  0  0
    1.9233   -1.1104    0.0000 C   0  0  0  0  0  0  0  0  0  0  0  0
    1.1387   -1.3654    0.0000 N   0  0  0  0  0  0  0  0  0  0  0  0
   -3.0587    0.0165    0.0000 C   0  0  0  0  0  0  0  0  0  0  0  0
   -2.6462   -0.6979    0.0000 Cl  0  0  0  0  0  0  0  0  0  0  0  0
   -3.8837    0.0165    0.0000 C   0  0  0  0  0  0  0  0  0  0  0  0
   -5.6061    0.0636    0.0000 N   0  0  0  0  0  0  0  0  0  0  0  0
  1  2  1  0  0  0  0
  2  3  4  0  0  0  0
  3  4  4  0  0  0  0
  4  5  4  0  0  0  0
  5  6  1  0  0  0  0
  6  7  4  0  0  0  0
  7  8  4  0  0  0  0
  8  9  1  0  0  0  0
  8 10  4  0  0  0  0
 10 11  1  0  0  0  0
 11 12  2  0  0  0  0
 11 13  1  0  0  0  0
 13 14  1  0  0  0  0
 14 15  1  0  0  0  0
 15 16  1  0  0  0  0
 16 17  4  0  0  0  0
 17 18  4  0  0  0  0
 18 19  4  0  0  0  0
 19 20  4  0  0  0  0
 20 21  1  0  0  0  0
 20 22  4  0  0  0  0
 16 22  4  0  0  0  0
 15 23  1  6  0  0  0
 23 24  4  0  0  0  0
 24 25  4  0  0  0  0
 25 26  4  0  0  0  0
 26 27  4  0  0  0  0
 27 28  4  0  0  0  0
 28 29  1  0  0  0  0
 28 30  4  0  0  0  0
 30 31  4  0  0  0  0
 25 31  4  0  0  0  0
 31 32  4  0  0  0  0
 23 32  4  0  0  0  0
 10 33  4  0  0  0  0
 33 34  1  0  0  0  0
 33 35  4  0  0  0  0
  6 35  4  0  0  0  0
  5 36  4  0  0  0  0
  2 36  4  0  0  0  0
M  STY  1   1 DAT
M  SAL   1  1  32
M  SDT   1 MRV_IMPLICIT_H                                        
M  SDD   1     0.0000    0.0000    DR    ALL  0       0  
M  SED   1 IMPL_H1
M  END
>  <CdId>
358321

>  <Mol Weight>
543.807

>  <Formula>
C25H18Cl3FN6O

>  <cmpd_chemblid>
CHEMBL3627895

>  <std_type>
Ki

>  <std_value>
9.8

>  <std_unit>
nM

>  <target_id>
CHEMBL2016

>  <target_name>
Coagulation factor IX

>  <organism>
Homo sapiens

>  <target_type>
SINGLE PROTEIN

$$$$

  Mrv0541 08052111042D          

 43 47  0  0  1  0            999 V2000
    3.9849    3.9849    0.0000 C   0  0  0  0  0  0  0  0  0  0  0  0
    4.3974    3.2704    0.0000 C   0  0  2  0  0  0  0  0  0  0  0  0
    5.2224    3.2704    0.0000 C   0  0  0  0  0  0  0  0  0  0  0  0
    5.6349    2.5559    0.0000 C   0  0  0  0  0  0  0  0  0  0  0  0
    6.4599    2.5559    0.0000 C   0  0  0  0  0  0  0  0  0  0  0  0
    6.8724    1.8414    0.0000 C   0  0  2  0  0  0  0  0  0  0  0  0
    7.6974    1.8414    0.0000 N   0  0  0  0  0  0  0  0  0  0  0  0
    8.1099    2.5559    0.0000 C   0  0  0  0  0  0  0  0  0  0  0  0
    8.9349    2.5559    0.0000 C   0  0  0  0  0  0  0  0  0  0  0  0
    9.3474    1.8414    0.0000 C   0  0  0  0  0  0  0  0  0  0  0  0
   10.1724    1.8414    0.0000 C   0  0  0  0  0  0  0  0  0  0  0  0
   10.5849    2.5559    0.0000 C   0  0  0  0  0  0  0  0  0  0  0  0
   10.1724    3.2704    0.0000 F   0  0  0  0  0  0  0  0  0  0  0  0
   11.4099    2.5559    0.0000 C   0  0  0  0  0  0  0  0  0  0  0  0
   11.8224    1.8414    0.0000 C   0  0  0  0  0  0  0  0  0  0  0  0
   11.4099    1.1270    0.0000 C   0  0  0  0  0  0  0  0  0  0  0  0
   11.8224    0.4125    0.0000 Cl  0  0  0  0  0  0  0  0  0  0  0  0
   10.5849    1.1270    0.0000 C   0  0  0  0  0  0  0  0  0  0  0  0
   10.1724    0.4125    0.0000 F   0  0  0  0  0  0  0  0  0  0  0  0
    8.9349    1.1270    0.0000 C   0  0  0  0  0  0  0  0  0  0  0  0
    8.1099    1.1270    0.0000 C   0  0  0  0  0  0  0  0  0  0  0  0
    7.6974    0.4125    0.0000 O   0  0  0  0  0  0  0  0  0  0  0  0
    6.4599    1.1270    0.0000 C   0  0  0  0  0  0  0  0  0  0  0  0
    5.6349    1.1270    0.0000 C   0  0  0  0  0  0  0  0  0  0  0  0
    5.2224    0.4125    0.0000 C   0  0  0  0  0  0  0  0  0  0  0  0
    5.6349   -0.3020    0.0000 C   0  0  0  0  0  0  0  0  0  0  0  0
    6.4599   -0.3020    0.0000 C   0  0  0  0  0  0  0  0  0  0  0  0
    6.8724    0.4125    0.0000 N   0  0  0  0  0  0  0  0  0  0  0  0
    4.3974    0.4125    0.0000 C   0  0  0  0  0  0  0  0  0  0  0  0
    3.9849   -0.3020    0.0000 C   0  0  0  0  0  0  0  0  0  0  0  0
    3.1599   -0.3020    0.0000 C   0  0  0  0  0  0  0  0  0  0  0  0
    2.7474   -1.0164    0.0000 C   0  0  0  0  0  0  0  0  0  0  0  0
    3.1599   -1.7309    0.0000 C   0  0  0  0  0  0  0  0  0  0  0  0
    3.9849   -1.7309    0.0000 C   0  0  0  0  0  0  0  0  0  0  0  0
    4.3974   -1.0164    0.0000 O   0  0  0  0  0  0  0  0  0  0  0  0
    4.3974   -2.4454    0.0000 O   0  0  0  0  0  0  0  0  0  0  0  0
    2.7474    0.4125    0.0000 C   0  0  0  0  0  0  0  0  0  0  0  0
    1.9224    0.4125    0.0000 N   0  0  0  0  0  0  0  0  0  0  0  0
    3.1599    1.1270    0.0000 C   0  0  0  0  0  0  0  0  0  0  0  0
    3.9849    1.1270    0.0000 C   0  0  0  0  0  0  0  0  0  0  0  0
    4.3974    1.8414    0.0000 N   0  0  0  0  0  0  0  0  0  0  0  0
    3.9849    2.5559    0.0000 C   0  0  0  0  0  0  0  0  0  0  0  0
    3.1599    2.5559    0.0000 O   0  0  0  0  0  0  0  0  0  0  0  0
  2  1  1  6  0  0  0
  2  3  1  0  0  0  0
  3  4  1  0  0  0  0
  4  5  1  0  0  0  0
  5  6  1  0  0  0  0
  6  7  1  6  0  0  0
  7  8  1  0  0  0  0
  8  9  1  0  0  0  0
  9 10  1  0  0  0  0
 10 11  1  0  0  0  0
 11 12  4  0  0  0  0
 12 13  1  0  0  0  0
 12 14  4  0  0  0  0
 14 15  4  0  0  0  0
 15 16  4  0  0  0  0
 16 17  1  0  0  0  0
 16 18  4  0  0  0  0
 11 18  4  0  0  0  0
 18 19  1  0  0  0  0
 10 20  2  0  0  0  0
 20 21  1  0  0  0  0
  7 21  1  0  0  0  0
 21 22  2  0  0  0  0
  6 23  1  0  0  0  0
 23 24  4  0  0  0  0
 24 25  4  0  0  0  0
 25 26  4  0  0  0  0
 26 27  4  0  0  0  0
 27 28  4  0  0  0  0
 23 28  4  0  0  0  0
 25 29  1  0  0  0  0
 29 30  4  0  0  0  0
 30 31  4  0  0  0  0
 31 32  1  0  0  0  0
 32 33  2  0  0  0  0
 33 34  1  0  0  0  0
 34 35  2  0  0  0  0
 34 36  1  0  0  0  0
 31 37  4  0  0  0  0
 37 38  1  0  0  0  0
 37 39  4  0  0  0  0
 39 40  4  0  0  0  0
 29 40  4  0  0  0  0
 40 41  1  0  0  0  0
 41 42  1  0  0  0  0
  2 42  1  0  0  0  0
 42 43  2  0  0  0  0
M  END
>  <CdId>
358322

>  <Mol Weight>
607.047

>  <Formula>
C32H29ClF2N4O4

>  <cmpd_chemblid>
CHEMBL4115510

>  <std_type>
Ki

>  <std_value>
9.57

>  <std_unit>
nM

>  <target_id>
CHEMBL2016

>  <target_name>
Coagulation factor IX

>  <organism>
Homo sapiens

>  <target_type>
SINGLE PROTEIN

$$$$

  Mrv0541 08052111042D          

 36 41  0  0  1  0            999 V2000
   -1.4066   -1.6301    0.0000 C   0  0  0  0  0  0  0  0  0  0  0  0
   -0.5996   -1.8016    0.0000 C   0  0  0  0  0  0  0  0  0  0  0  0
   -0.3446   -2.5862    0.0000 C   0  0  0  0  0  0  0  0  0  0  0  0
    0.4623   -2.7578    0.0000 C   0  0  0  0  0  0  0  0  0  0  0  0
    1.0144   -2.1447    0.0000 C   0  0  0  0  0  0  0  0  0  0  0  0
    1.8394   -2.1447    0.0000 C   0  0  0  0  0  0  0  0  0  0  0  0
    2.0943   -1.3601    0.0000 C   0  0  0  0  0  0  0  0  0  0  0  0
    1.4269   -0.8751    0.0000 N   0  0  0  0  0  0  0  0  0  0  0  0
    0.7594   -1.3601    0.0000 N   0  0  0  0  0  0  0  0  0  0  0  0
   -0.0476   -1.1885    0.0000 C   0  0  0  0  0  0  0  0  0  0  0  0
    2.9013   -1.1885    0.0000 C   0  0  0  0  0  0  0  0  0  0  0  0
    3.4533   -1.8016    0.0000 C   0  0  0  0  0  0  0  0  0  0  0  0
    3.1984   -2.5862    0.0000 C   0  0  2  0  0  0  0  0  0  0  0  0
    4.0153   -2.7011    0.0000 N   0  0  0  0  0  0  0  0  0  0  0  0
    4.5233   -2.0510    0.0000 C   0  0  0  0  0  0  0  0  0  0  0  0
    4.2142   -1.2860    0.0000 O   0  0  0  0  0  0  0  0  0  0  0  0
    5.3402   -2.1658    0.0000 C   0  0  0  0  0  0  0  0  0  0  0  0
    5.8481   -1.5157    0.0000 C   0  0  0  0  0  0  0  0  0  0  0  0
    6.6651   -1.6305    0.0000 C   0  0  0  0  0  0  0  0  0  0  0  0
    6.9742   -2.3954    0.0000 C   0  0  0  0  0  0  0  0  0  0  0  0
    7.7911   -2.5102    0.0000 N   0  0  0  0  0  0  0  0  0  0  0  0
    8.3642   -1.9168    0.0000 C   0  0  0  0  0  0  0  0  0  0  0  0
    9.1057   -2.2784    0.0000 N   0  0  0  0  0  0  0  0  0  0  0  0
    8.9909   -3.0954    0.0000 C   0  0  0  0  0  0  0  0  0  0  0  0
    9.5844   -3.6685    0.0000 C   0  0  0  0  0  0  0  0  0  0  0  0
    8.1785   -3.2387    0.0000 N   0  0  0  0  0  0  0  0  0  0  0  0
    6.4662   -3.0455    0.0000 C   0  0  0  0  0  0  0  0  0  0  0  0
    5.6493   -2.9307    0.0000 C   0  0  0  0  0  0  0  0  0  0  0  0
    5.1414   -3.5808    0.0000 Cl  0  0  0  0  0  0  0  0  0  0  0  0
    3.2272   -3.4107    0.0000 C   0  0  0  0  0  0  0  0  0  0  0  0
    3.9556   -3.7981    0.0000 C   0  0  0  0  0  0  0  0  0  0  0  0
    3.9844   -4.6226    0.0000 C   0  0  0  0  0  0  0  0  0  0  0  0
    3.2847   -5.0597    0.0000 C   0  0  0  0  0  0  0  0  0  0  0  0
    2.5563   -4.6724    0.0000 C   0  0  0  0  0  0  0  0  0  0  0  0
    2.5275   -3.8479    0.0000 C   0  0  0  0  0  0  0  0  0  0  0  0
    2.3914   -2.7578    0.0000 C   0  0  0  0  0  0  0  0  0  0  0  0
  1  2  1  0  0  0  0
  2  3  4  0  0  0  0
  3  4  4  0  0  0  0
  4  5  4  0  0  0  0
  5  6  4  0  0  0  0
  6  7  4  0  0  0  0
  7  8  4  0  0  0  0
  8  9  4  0  0  0  0
  5  9  4  0  0  0  0
  9 10  4  0  0  0  0
  2 10  4  0  0  0  0
  7 11  1  0  0  0  0
 11 12  1  0  0  0  0
 12 13  1  0  0  0  0
 13 14  1  1  0  0  0
 14 15  1  0  0  0  0
 15 16  2  0  0  0  0
 15 17  1  0  0  0  0
 17 18  4  0  0  0  0
 18 19  4  0  0  0  0
 19 20  4  0  0  0  0
 20 21  1  0  0  0  0
 21 22  4  0  0  0  0
 22 23  4  0  0  0  0
 23 24  4  0  0  0  0
 24 25  1  0  0  0  0
 24 26  4  0  0  0  0
 21 26  4  0  0  0  0
 20 27  4  0  0  0  0
 27 28  4  0  0  0  0
 17 28  4  0  0  0  0
 28 29  1  0  0  0  0
 13 30  1  6  0  0  0
 30 31  4  0  0  0  0
 31 32  4  0  0  0  0
 32 33  4  0  0  0  0
 33 34  4  0  0  0  0
 34 35  4  0  0  0  0
 30 35  4  0  0  0  0
 13 36  1  0  0  0  0
  6 36  1  0  0  0  0
M  END
>  <CdId>
358323

>  <Mol Weight>
496.991

>  <Formula>
C28H25ClN6O

>  <cmpd_chemblid>
CHEMBL3628831

>  <std_type>
Ki

>  <std_value>
6.9

>  <std_unit>
nM

>  <target_id>
CHEMBL2016

>  <target_name>
Coagulation factor IX

>  <organism>
Homo sapiens

>  <target_type>
SINGLE PROTEIN

$$$$

  Mrv0541 08052111042D          

 31 33  0  0  0  0            999 V2000
    2.1434   -3.7125    0.0000 N   0  0  0  0  0  0  0  0  0  0  0  0
    2.8579   -4.1250    0.0000 C   0  0  0  0  0  0  0  0  0  0  0  0
    3.5724   -3.7125    0.0000 N   0  0  0  0  0  0  0  0  0  0  0  0
    2.8579   -4.9500    0.0000 C   0  0  0  0  0  0  0  0  0  0  0  0
    3.5724   -5.3625    0.0000 C   0  0  0  0  0  0  0  0  0  0  0  0
    3.5724   -6.1875    0.0000 C   0  0  0  0  0  0  0  0  0  0  0  0
    2.8579   -6.6000    0.0000 C   0  0  0  0  0  0  0  0  0  0  0  0
    2.8579   -7.4250    0.0000 N   0  0  0  0  0  0  0  0  0  0  0  0
    3.5724   -7.8375    0.0000 C   0  0  0  0  0  0  0  0  0  0  0  0
    4.2868   -7.4250    0.0000 O   0  0  0  0  0  0  0  0  0  0  0  0
    3.5724   -8.6625    0.0000 C   0  0  0  0  0  0  0  0  0  0  0  0
    2.8579   -9.0750    0.0000 O   0  0  0  0  0  0  0  0  0  0  0  0
    4.2868   -9.0750    0.0000 C   0  0  0  0  0  0  0  0  0  0  0  0
    5.0013   -8.6625    0.0000 C   0  0  0  0  0  0  0  0  0  0  0  0
    5.7158   -9.0750    0.0000 C   0  0  0  0  0  0  0  0  0  0  0  0
    5.7158   -9.9000    0.0000 C   0  0  0  0  0  0  0  0  0  0  0  0
    5.0013  -10.3125    0.0000 C   0  0  0  0  0  0  0  0  0  0  0  0
    5.0013  -11.1375    0.0000 C   0  0  0  0  0  0  0  0  0  0  0  0
    5.7158  -11.5500    0.0000 C   0  0  0  0  0  0  0  0  0  0  0  0
    5.7158  -12.3750    0.0000 C   0  0  0  0  0  0  0  0  0  0  0  0
    5.0013  -12.7875    0.0000 C   0  0  0  0  0  0  0  0  0  0  0  0
    5.0013  -13.6125    0.0000 O   0  0  0  0  0  0  0  0  0  0  0  0
    5.7158  -14.0250    0.0000 C   0  0  0  0  0  0  0  0  0  0  0  0
    6.4302  -14.4375    0.0000 F   0  0  0  0  0  0  0  0  0  0  0  0
    5.3033  -14.7395    0.0000 F   0  0  0  0  0  0  0  0  0  0  0  0
    6.1283  -13.3105    0.0000 F   0  0  0  0  0  0  0  0  0  0  0  0
    4.2868  -12.3750    0.0000 C   0  0  0  0  0  0  0  0  0  0  0  0
    4.2868  -11.5500    0.0000 C   0  0  0  0  0  0  0  0  0  0  0  0
    4.2868   -9.9000    0.0000 C   0  0  0  0  0  0  0  0  0  0  0  0
    2.1434   -6.1875    0.0000 C   0  0  0  0  0  0  0  0  0  0  0  0
    2.1434   -5.3625    0.0000 C   0  0  0  0  0  0  0  0  0  0  0  0
  1  2  2  0  0  0  0
  2  3  1  0  0  0  0
  2  4  1  0  0  0  0
  4  5  4  0  0  0  0
  5  6  4  0  0  0  0
  6  7  4  0  0  0  0
  7  8  1  0  0  0  0
  8  9  1  0  0  0  0
  9 10  2  0  0  0  0
  9 11  1  0  0  0  0
 11 12  1  0  0  0  0
 11 13  1  0  0  0  0
 13 14  4  0  0  0  0
 14 15  4  0  0  0  0
 15 16  4  0  0  0  0
 16 17  4  0  0  0  0
 17 18  1  0  0  0  0
 18 19  4  0  0  0  0
 19 20  4  0  0  0  0
 20 21  4  0  0  0  0
 21 22  1  0  0  0  0
 22 23  1  0  0  0  0
 23 24  1  0  0  0  0
 23 25  1  0  0  0  0
 23 26  1  0  0  0  0
 21 27  4  0  0  0  0
 27 28  4  0  0  0  0
 18 28  4  0  0  0  0
 17 29  4  0  0  0  0
 13 29  4  0  0  0  0
  7 30  4  0  0  0  0
 30 31  4  0  0  0  0
  4 31  4  0  0  0  0
M  END
>  <CdId>
358325

>  <Mol Weight>
429.3918

>  <Formula>
C22H18F3N3O3

>  <cmpd_chemblid>
CHEMBL3924571

>  <std_type>
Ki

>  <std_value>
222.5

>  <std_unit>
nM

>  <target_id>
CHEMBL2016

>  <target_name>
Coagulation factor IX

>  <organism>
Homo sapiens

>  <target_type>
SINGLE PROTEIN

$$$$

  Mrv0541 08052111042D          

 38 42  0  0  1  0            999 V2000
    3.9849    3.9849    0.0000 C   0  0  0  0  0  0  0  0  0  0  0  0
    4.3974    3.2704    0.0000 C   0  0  2  0  0  0  0  0  0  0  0  0
    5.2224    3.2704    0.0000 C   0  0  0  0  0  0  0  0  0  0  0  0
    5.6349    2.5559    0.0000 C   0  0  0  0  0  0  0  0  0  0  0  0
    6.4599    2.5559    0.0000 C   0  0  0  0  0  0  0  0  0  0  0  0
    6.8724    1.8414    0.0000 C   0  0  2  0  0  0  0  0  0  0  0  0
    7.6974    1.8414    0.0000 N   0  0  0  0  0  0  0  0  0  0  0  0
    8.1099    2.5559    0.0000 C   0  0  0  0  0  0  0  0  0  0  0  0
    8.9349    2.5559    0.0000 C   0  0  0  0  0  0  0  0  0  0  0  0
    9.3474    1.8414    0.0000 C   0  0  0  0  0  0  0  0  0  0  0  0
   10.1724    1.8414    0.0000 C   0  0  0  0  0  0  0  0  0  0  0  0
   10.5849    2.5559    0.0000 C   0  0  0  0  0  0  0  0  0  0  0  0
   10.1724    3.2704    0.0000 F   0  0  0  0  0  0  0  0  0  0  0  0
   11.4099    2.5559    0.0000 C   0  0  0  0  0  0  0  0  0  0  0  0
   11.8224    1.8414    0.0000 C   0  0  0  0  0  0  0  0  0  0  0  0
   11.4099    1.1270    0.0000 C   0  0  0  0  0  0  0  0  0  0  0  0
   11.8224    0.4125    0.0000 Cl  0  0  0  0  0  0  0  0  0  0  0  0
   10.5849    1.1270    0.0000 C   0  0  0  0  0  0  0  0  0  0  0  0
   10.1724    0.4125    0.0000 F   0  0  0  0  0  0  0  0  0  0  0  0
    8.9349    1.1270    0.0000 C   0  0  0  0  0  0  0  0  0  0  0  0
    8.1099    1.1270    0.0000 C   0  0  0  0  0  0  0  0  0  0  0  0
    7.6974    0.4125    0.0000 O   0  0  0  0  0  0  0  0  0  0  0  0
    6.4599    1.1270    0.0000 C   0  0  0  0  0  0  0  0  0  0  0  0
    5.6349    1.1270    0.0000 C   0  0  0  0  0  0  0  0  0  0  0  0
    5.2224    0.4125    0.0000 C   0  0  0  0  0  0  0  0  0  0  0  0
    5.6349   -0.3020    0.0000 C   0  0  0  0  0  0  0  0  0  0  0  0
    6.4599   -0.3020    0.0000 C   0  0  0  0  0  0  0  0  0  0  0  0
    6.8724    0.4125    0.0000 N   0  0  0  0  0  0  0  0  0  0  0  0
    4.3974    0.4125    0.0000 C   0  0  0  0  0  0  0  0  0  0  0  0
    3.9849   -0.3020    0.0000 C   0  0  0  0  0  0  0  0  0  0  0  0
    3.1599   -0.3020    0.0000 C   0  0  0  0  0  0  0  0  0  0  0  0
    2.7474    0.4125    0.0000 C   0  0  0  0  0  0  0  0  0  0  0  0
    1.9224    0.4125    0.0000 N   0  0  0  0  0  0  0  0  0  0  0  0
    3.1599    1.1270    0.0000 C   0  0  0  0  0  0  0  0  0  0  0  0
    3.9849    1.1270    0.0000 C   0  0  0  0  0  0  0  0  0  0  0  0
    4.3974    1.8414    0.0000 N   0  0  0  0  0  0  0  0  0  0  0  0
    3.9849    2.5559    0.0000 C   0  0  0  0  0  0  0  0  0  0  0  0
    3.1599    2.5559    0.0000 O   0  0  0  0  0  0  0  0  0  0  0  0
  2  1  1  6  0  0  0
  2  3  1  0  0  0  0
  3  4  1  0  0  0  0
  4  5  1  0  0  0  0
  5  6  1  0  0  0  0
  6  7  1  6  0  0  0
  7  8  1  0  0  0  0
  8  9  1  0  0  0  0
  9 10  1  0  0  0  0
 10 11  1  0  0  0  0
 11 12  4  0  0  0  0
 12 13  1  0  0  0  0
 12 14  4  0  0  0  0
 14 15  4  0  0  0  0
 15 16  4  0  0  0  0
 16 17  1  0  0  0  0
 16 18  4  0  0  0  0
 11 18  4  0  0  0  0
 18 19  1  0  0  0  0
 10 20  2  0  0  0  0
 20 21  1  0  0  0  0
  7 21  1  0  0  0  0
 21 22  2  0  0  0  0
  6 23  1  0  0  0  0
 23 24  4  0  0  0  0
 24 25  4  0  0  0  0
 25 26  4  0  0  0  0
 26 27  4  0  0  0  0
 27 28  4  0  0  0  0
 23 28  4  0  0  0  0
 25 29  1  0  0  0  0
 29 30  4  0  0  0  0
 30 31  4  0  0  0  0
 31 32  4  0  0  0  0
 32 33  1  0  0  0  0
 32 34  4  0  0  0  0
 34 35  4  0  0  0  0
 29 35  4  0  0  0  0
 35 36  1  0  0  0  0
 36 37  1  0  0  0  0
  2 37  1  0  0  0  0
 37 38  2  0  0  0  0
M  END
>  <CdId>
358327

>  <Mol Weight>
537.0

>  <Formula>
C29H27ClF2N4O2

>  <cmpd_chemblid>
CHEMBL4106988

>  <std_type>
Ki

>  <std_value>
1.5

>  <std_unit>
nM

>  <target_id>
CHEMBL2016

>  <target_name>
Coagulation factor IX

>  <organism>
Homo sapiens

>  <target_type>
SINGLE PROTEIN

$$$$

  Mrv0541 08052111042D          

 38 43  0  0  0  0            999 V2000
    8.3165   -7.8329    0.0000 C   0  0  0  0  0  0  0  0  0  0  0  0
    8.3453   -7.0084    0.0000 C   0  0  0  0  0  0  0  0  0  0  0  0
    9.0737   -6.6211    0.0000 C   0  0  0  0  0  0  0  0  0  0  0  0
    9.1025   -5.7966    0.0000 C   0  0  0  0  0  0  0  0  0  0  0  0
    8.4029   -5.3594    0.0000 C   0  0  0  0  0  0  0  0  0  0  0  0
    8.4317   -4.5349    0.0000 O   0  0  0  0  0  0  0  0  0  0  0  0
    7.6744   -5.7467    0.0000 C   0  0  0  0  0  0  0  0  0  0  0  0
    6.8992   -5.4646    0.0000 C   0  0  0  0  0  0  0  0  0  0  0  0
    6.3913   -6.1147    0.0000 C   0  0  0  0  0  0  0  0  0  0  0  0
    6.8526   -6.7986    0.0000 N   0  0  0  0  0  0  0  0  0  0  0  0
    7.6456   -6.5712    0.0000 N   0  0  0  0  0  0  0  0  0  0  0  0
    5.5743   -5.9999    0.0000 C   0  0  0  0  0  0  0  0  0  0  0  0
    5.2653   -5.2349    0.0000 C   0  0  0  0  0  0  0  0  0  0  0  0
    5.7732   -4.5848    0.0000 C   0  0  0  0  0  0  0  0  0  0  0  0
    5.0447   -4.1975    0.0000 C   0  0  0  0  0  0  0  0  0  0  0  0
    6.0281   -3.8002    0.0000 N   0  0  0  0  0  0  0  0  0  0  0  0
    5.4761   -3.1871    0.0000 C   0  0  0  0  0  0  0  0  0  0  0  0
    4.6691   -3.3586    0.0000 O   0  0  0  0  0  0  0  0  0  0  0  0
    5.7310   -2.4025    0.0000 C   0  0  0  0  0  0  0  0  0  0  0  0
    5.1790   -1.7894    0.0000 C   0  0  0  0  0  0  0  0  0  0  0  0
    5.4339   -1.0048    0.0000 C   0  0  0  0  0  0  0  0  0  0  0  0
    6.2409   -0.8332    0.0000 C   0  0  0  0  0  0  0  0  0  0  0  0
    6.4958   -0.0486    0.0000 N   0  0  0  0  0  0  0  0  0  0  0  0
    6.0109    0.6188    0.0000 C   0  0  0  0  0  0  0  0  0  0  0  0
    6.4958    1.2863    0.0000 N   0  0  0  0  0  0  0  0  0  0  0  0
    7.2805    1.0313    0.0000 C   0  0  0  0  0  0  0  0  0  0  0  0
    7.9949    1.4438    0.0000 C   0  0  0  0  0  0  0  0  0  0  0  0
    8.7094    1.0313    0.0000 C   0  0  0  0  0  0  0  0  0  0  0  0
    9.4239    1.4438    0.0000 C   0  0  0  0  0  0  0  0  0  0  0  0
    9.4239    2.2688    0.0000 O   0  0  0  0  0  0  0  0  0  0  0  0
   10.1383    1.0313    0.0000 O   0  0  0  0  0  0  0  0  0  0  0  0
    8.7094    0.2063    0.0000 C   0  0  0  0  0  0  0  0  0  0  0  0
    7.9949   -0.2062    0.0000 C   0  0  0  0  0  0  0  0  0  0  0  0
    7.2805    0.2063    0.0000 C   0  0  0  0  0  0  0  0  0  0  0  0
    6.7929   -1.4463    0.0000 C   0  0  0  0  0  0  0  0  0  0  0  0
    6.5380   -2.2310    0.0000 C   0  0  0  0  0  0  0  0  0  0  0  0
    7.0900   -2.8440    0.0000 Cl  0  0  0  0  0  0  0  0  0  0  0  0
    6.5901   -4.6996    0.0000 C   0  0  0  0  0  0  0  0  0  0  0  0
  1  2  1  0  0  0  0
  2  3  4  0  0  0  0
  3  4  4  0  0  0  0
  4  5  4  0  0  0  0
  5  6  1  0  0  0  0
  5  7  4  0  0  0  0
  7  8  4  0  0  0  0
  8  9  4  0  0  0  0
  9 10  4  0  0  0  0
 10 11  4  0  0  0  0
  2 11  4  0  0  0  0
  7 11  4  0  0  0  0
  9 12  1  0  0  0  0
 12 13  1  0  0  0  0
 13 14  1  0  0  0  0
 14 15  1  0  0  0  0
 14 16  1  0  0  0  0
 16 17  1  0  0  0  0
 17 18  2  0  0  0  0
 17 19  1  0  0  0  0
 19 20  4  0  0  0  0
 20 21  4  0  0  0  0
 21 22  4  0  0  0  0
 22 23  1  0  0  0  0
 23 24  4  0  0  0  0
 24 25  4  0  0  0  0
 25 26  4  0  0  0  0
 26 27  4  0  0  0  0
 27 28  4  0  0  0  0
 28 29  1  0  0  0  0
 29 30  2  0  0  0  0
 29 31  1  0  0  0  0
 28 32  4  0  0  0  0
 32 33  4  0  0  0  0
 33 34  4  0  0  0  0
 26 34  4  0  0  0  0
 23 34  4  0  0  0  0
 22 35  4  0  0  0  0
 35 36  4  0  0  0  0
 19 36  4  0  0  0  0
 36 37  1  0  0  0  0
 14 38  1  0  0  0  0
  8 38  1  0  0  0  0
M  END
>  <CdId>
358329

>  <Mol Weight>
529.974

>  <Formula>
C28H24ClN5O4

>  <cmpd_chemblid>
CHEMBL4247345

>  <std_type>
Ki

>  <std_value>
3.5

>  <std_unit>
nM

>  <target_id>
CHEMBL2016

>  <target_name>
Coagulation factor IX

>  <organism>
Homo sapiens

>  <target_type>
SINGLE PROTEIN

$$$$

  Mrv0541 08052111042D          

 44 49  0  0  1  0            999 V2000
    3.9849    3.9849    0.0000 C   0  0  0  0  0  0  0  0  0  0  0  0
    4.3974    3.2704    0.0000 C   0  0  2  0  0  0  0  0  0  0  0  0
    5.2224    3.2704    0.0000 C   0  0  0  0  0  0  0  0  0  0  0  0
    5.6349    2.5559    0.0000 C   0  0  0  0  0  0  0  0  0  0  0  0
    6.4599    2.5559    0.0000 C   0  0  0  0  0  0  0  0  0  0  0  0
    6.8724    1.8414    0.0000 C   0  0  2  0  0  0  0  0  0  0  0  0
    7.6974    1.8414    0.0000 N   0  0  0  0  0  0  0  0  0  0  0  0
    8.1099    2.5559    0.0000 C   0  0  0  0  0  0  0  0  0  0  0  0
    8.9349    2.5559    0.0000 C   0  0  0  0  0  0  0  0  0  0  0  0
    9.3474    1.8414    0.0000 C   0  0  0  0  0  0  0  0  0  0  0  0
   10.1724    1.8414    0.0000 C   0  0  0  0  0  0  0  0  0  0  0  0
   10.5849    2.5559    0.0000 C   0  0  0  0  0  0  0  0  0  0  0  0
   10.1724    3.2704    0.0000 F   0  0  0  0  0  0  0  0  0  0  0  0
   11.4099    2.5559    0.0000 C   0  0  0  0  0  0  0  0  0  0  0  0
   11.8224    1.8414    0.0000 C   0  0  0  0  0  0  0  0  0  0  0  0
   11.4099    1.1270    0.0000 C   0  0  0  0  0  0  0  0  0  0  0  0
   11.8224    0.4125    0.0000 Cl  0  0  0  0  0  0  0  0  0  0  0  0
   10.5849    1.1270    0.0000 C   0  0  0  0  0  0  0  0  0  0  0  0
   10.1724    0.4125    0.0000 F   0  0  0  0  0  0  0  0  0  0  0  0
    8.9349    1.1270    0.0000 C   0  0  0  0  0  0  0  0  0  0  0  0
    8.1099    1.1270    0.0000 C   0  0  0  0  0  0  0  0  0  0  0  0
    7.6974    0.4125    0.0000 O   0  0  0  0  0  0  0  0  0  0  0  0
    6.4599    1.1270    0.0000 C   0  0  0  0  0  0  0  0  0  0  0  0
    5.6349    1.1270    0.0000 C   0  0  0  0  0  0  0  0  0  0  0  0
    5.2224    0.4125    0.0000 C   0  0  0  0  0  0  0  0  0  0  0  0
    5.6349   -0.3020    0.0000 C   0  0  0  0  0  0  0  0  0  0  0  0
    6.4599   -0.3020    0.0000 C   0  0  0  0  0  0  0  0  0  0  0  0
    6.8724    0.4125    0.0000 N   0  0  0  0  0  0  0  0  0  0  0  0
    4.3974    0.4125    0.0000 C   0  0  0  0  0  0  0  0  0  0  0  0
    3.9849   -0.3020    0.0000 C   0  0  0  0  0  0  0  0  0  0  0  0
    3.1599   -0.3020    0.0000 C   0  0  0  0  0  0  0  0  0  0  0  0
    2.7474    0.4125    0.0000 C   0  0  0  0  0  0  0  0  0  0  0  0
    1.9224    0.4125    0.0000 N   0  0  0  0  0  0  0  0  0  0  0  0
    1.5099    1.1270    0.0000 C   0  0  0  0  0  0  0  0  0  0  0  0
    0.6849    1.1270    0.0000 C   0  0  0  0  0  0  0  0  0  0  0  0
    0.2724    1.8414    0.0000 C   0  0  0  0  0  0  0  0  0  0  0  0
    0.6849    2.5559    0.0000 N   0  0  0  0  0  0  0  0  0  0  0  0
    1.5099    2.5559    0.0000 C   0  0  0  0  0  0  0  0  0  0  0  0
    1.9224    1.8414    0.0000 C   0  0  0  0  0  0  0  0  0  0  0  0
    3.1599    1.1270    0.0000 C   0  0  0  0  0  0  0  0  0  0  0  0
    3.9849    1.1270    0.0000 C   0  0  0  0  0  0  0  0  0  0  0  0
    4.3974    1.8414    0.0000 N   0  0  0  0  0  0  0  0  0  0  0  0
    3.9849    2.5559    0.0000 C   0  0  0  0  0  0  0  0  0  0  0  0
    3.1599    2.5559    0.0000 O   0  0  0  0  0  0  0  0  0  0  0  0
  2  1  1  6  0  0  0
  2  3  1  0  0  0  0
  3  4  1  0  0  0  0
  4  5  1  0  0  0  0
  5  6  1  0  0  0  0
  6  7  1  6  0  0  0
  7  8  1  0  0  0  0
  8  9  1  0  0  0  0
  9 10  1  0  0  0  0
 10 11  1  0  0  0  0
 11 12  4  0  0  0  0
 12 13  1  0  0  0  0
 12 14  4  0  0  0  0
 14 15  4  0  0  0  0
 15 16  4  0  0  0  0
 16 17  1  0  0  0  0
 16 18  4  0  0  0  0
 11 18  4  0  0  0  0
 18 19  1  0  0  0  0
 10 20  2  0  0  0  0
 20 21  1  0  0  0  0
  7 21  1  0  0  0  0
 21 22  2  0  0  0  0
  6 23  1  0  0  0  0
 23 24  4  0  0  0  0
 24 25  4  0  0  0  0
 25 26  4  0  0  0  0
 26 27  4  0  0  0  0
 27 28  4  0  0  0  0
 23 28  4  0  0  0  0
 25 29  1  0  0  0  0
 29 30  4  0  0  0  0
 30 31  4  0  0  0  0
 31 32  4  0  0  0  0
 32 33  1  0  0  0  0
 33 34  1  0  0  0  0
 34 35  4  0  0  0  0
 35 36  4  0  0  0  0
 36 37  4  0  0  0  0
 37 38  4  0  0  0  0
 38 39  4  0  0  0  0
 34 39  4  0  0  0  0
 32 40  4  0  0  0  0
 40 41  4  0  0  0  0
 29 41  4  0  0  0  0
 41 42  1  0  0  0  0
 42 43  1  0  0  0  0
  2 43  1  0  0  0  0
 43 44  2  0  0  0  0
M  END
>  <CdId>
358330

>  <Mol Weight>
614.084

>  <Formula>
C34H30ClF2N5O2

>  <cmpd_chemblid>
CHEMBL4109245

>  <std_type>
Ki

>  <std_value>
2.43

>  <std_unit>
nM

>  <target_id>
CHEMBL2016

>  <target_name>
Coagulation factor IX

>  <organism>
Homo sapiens

>  <target_type>
SINGLE PROTEIN

$$$$

  Mrv0541 08052111042D          

 37 41  0  0  1  0            999 V2000
   -7.0582   -0.1664    0.0000 C   0  0  0  0  0  0  0  0  0  0  0  0
   -6.3907    0.3185    0.0000 C   0  0  0  0  0  0  0  0  0  0  0  0
   -6.3907    1.1435    0.0000 N   0  0  0  0  0  0  0  0  0  0  0  0
   -5.6061    1.3984    0.0000 C   0  0  0  0  0  0  0  0  0  0  0  0
   -5.1212    0.7310    0.0000 N   0  0  0  0  0  0  0  0  0  0  0  0
   -4.2962    0.7310    0.0000 C   0  0  0  0  0  0  0  0  0  0  0  0
   -3.8837    1.4455    0.0000 C   0  0  0  0  0  0  0  0  0  0  0  0
   -3.0587    1.4455    0.0000 C   0  0  0  0  0  0  0  0  0  0  0  0
   -2.6462    2.1599    0.0000 Cl  0  0  0  0  0  0  0  0  0  0  0  0
   -2.6462    0.7310    0.0000 C   0  0  0  0  0  0  0  0  0  0  0  0
   -1.8212    0.7310    0.0000 C   0  0  0  0  0  0  0  0  0  0  0  0
   -1.4087    1.4455    0.0000 O   0  0  0  0  0  0  0  0  0  0  0  0
   -1.4087    0.0165    0.0000 N   0  0  0  0  0  0  0  0  0  0  0  0
   -0.5837    0.0165    0.0000 C   0  0  0  0  0  0  0  0  0  0  0  0
   -0.1712   -0.6979    0.0000 C   0  0  1  0  0  0  0  0  0  0  0  0
   -0.5837   -1.4124    0.0000 C   0  0  0  0  0  0  0  0  0  0  0  0
   -0.1712   -2.1269    0.0000 C   0  0  0  0  0  0  0  0  0  0  0  0
   -0.5837   -2.8414    0.0000 C   0  0  0  0  0  0  0  0  0  0  0  0
   -1.4087   -2.8414    0.0000 C   0  0  0  0  0  0  0  0  0  0  0  0
   -1.8212   -2.1269    0.0000 C   0  0  0  0  0  0  0  0  0  0  0  0
   -2.6462   -2.1269    0.0000 F   0  0  0  0  0  0  0  0  0  0  0  0
   -1.4087   -1.4124    0.0000 C   0  0  0  0  0  0  0  0  0  0  0  0
    0.6538   -0.6979    0.0000 C   0  0  0  0  0  0  0  0  0  0  0  0
    1.1387   -0.0305    0.0000 N   0  0  0  0  0  0  0  0  0  0  0  0
    1.9233   -0.2854    0.0000 C   0  0  0  0  0  0  0  0  0  0  0  0
    2.6378    0.1271    0.0000 C   0  0  0  0  0  0  0  0  0  0  0  0
    2.6378    0.9521    0.0000 C   0  0  0  0  0  0  0  0  0  0  0  0
    3.3523   -0.2854    0.0000 C   0  0  0  0  0  0  0  0  0  0  0  0
    3.3523   -1.1104    0.0000 C   0  0  0  0  0  0  0  0  0  0  0  0
    4.0668   -1.5229    0.0000 Cl  0  0  0  0  0  0  0  0  0  0  0  0
    2.6378   -1.5229    0.0000 C   0  0  0  0  0  0  0  0  0  0  0  0
    1.9233   -1.1104    0.0000 C   0  0  0  0  0  0  0  0  0  0  0  0
    1.1387   -1.3654    0.0000 N   0  0  0  0  0  0  0  0  0  0  0  0
   -3.0587    0.0165    0.0000 C   0  0  0  0  0  0  0  0  0  0  0  0
   -2.6462   -0.6979    0.0000 Cl  0  0  0  0  0  0  0  0  0  0  0  0
   -3.8837    0.0165    0.0000 C   0  0  0  0  0  0  0  0  0  0  0  0
   -5.6061    0.0636    0.0000 N   0  0  0  0  0  0  0  0  0  0  0  0
  1  2  1  0  0  0  0
  2  3  4  0  0  0  0
  3  4  4  0  0  0  0
  4  5  4  0  0  0  0
  5  6  1  0  0  0  0
  6  7  4  0  0  0  0
  7  8  4  0  0  0  0
  8  9  1  0  0  0  0
  8 10  4  0  0  0  0
 10 11  1  0  0  0  0
 11 12  2  0  0  0  0
 11 13  1  0  0  0  0
 13 14  1  0  0  0  0
 14 15  1  0  0  0  0
 15 16  1  0  0  0  0
 16 17  4  0  0  0  0
 17 18  4  0  0  0  0
 18 19  4  0  0  0  0
 19 20  4  0  0  0  0
 20 21  1  0  0  0  0
 20 22  4  0  0  0  0
 16 22  4  0  0  0  0
 15 23  1  6  0  0  0
 23 24  4  0  0  0  0
 24 25  4  0  0  0  0
 25 26  4  0  0  0  0
 26 27  1  0  0  0  0
 26 28  4  0  0  0  0
 28 29  4  0  0  0  0
 29 30  1  0  0  0  0
 29 31  4  0  0  0  0
 31 32  4  0  0  0  0
 25 32  4  0  0  0  0
 32 33  4  0  0  0  0
 23 33  4  0  0  0  0
 10 34  4  0  0  0  0
 34 35  1  0  0  0  0
 34 36  4  0  0  0  0
  6 36  4  0  0  0  0
  5 37  4  0  0  0  0
  2 37  4  0  0  0  0
M  STY  1   1 DAT
M  SAL   1  1  33
M  SDT   1 MRV_IMPLICIT_H                                        
M  SDD   1     0.0000    0.0000    DR    ALL  0       0  
M  SED   1 IMPL_H1
M  END
>  <CdId>
358331

>  <Mol Weight>
557.834

>  <Formula>
C26H20Cl3FN6O

>  <cmpd_chemblid>
CHEMBL3627896

>  <std_type>
Ki

>  <std_value>
6.2

>  <std_unit>
nM

>  <target_id>
CHEMBL2016

>  <target_name>
Coagulation factor IX

>  <organism>
Homo sapiens

>  <target_type>
SINGLE PROTEIN

$$$$

  Mrv0541 08052111042D          

 38 41  0  0  0  0            999 V2000
    0.4944    3.5854    0.0000 C   0  0  0  0  0  0  0  0  0  0  0  0
    1.2089    3.1729    0.0000 O   0  0  0  0  0  0  0  0  0  0  0  0
    1.9233    3.5854    0.0000 C   0  0  0  0  0  0  0  0  0  0  0  0
    1.9233    4.4104    0.0000 C   0  0  0  0  0  0  0  0  0  0  0  0
    2.6378    4.8229    0.0000 C   0  0  0  0  0  0  0  0  0  0  0  0
    3.3523    4.4104    0.0000 C   0  0  0  0  0  0  0  0  0  0  0  0
    4.0668    4.8229    0.0000 C   0  0  0  0  0  0  0  0  0  0  0  0
    4.7812    4.4104    0.0000 C   0  0  0  0  0  0  0  0  0  0  0  0
    5.4957    4.8229    0.0000 C   0  0  0  0  0  0  0  0  0  0  0  0
    5.4957    5.6479    0.0000 C   0  0  0  0  0  0  0  0  0  0  0  0
    6.2102    6.0604    0.0000 C   0  0  0  0  0  0  0  0  0  0  0  0
    6.9246    5.6479    0.0000 O   0  0  0  0  0  0  0  0  0  0  0  0
    6.2102    6.8854    0.0000 N   0  0  0  0  0  0  0  0  0  0  0  0
    6.9246    7.2979    0.0000 C   0  0  0  0  0  0  0  0  0  0  0  0
    6.9246    8.1229    0.0000 C   0  0  0  0  0  0  0  0  0  0  0  0
    6.9246    8.9479    0.0000 C   0  0  0  0  0  0  0  0  0  0  0  0
    7.7496    8.1229    0.0000 C   0  0  0  0  0  0  0  0  0  0  0  0
    6.0996    8.1229    0.0000 C   0  0  0  0  0  0  0  0  0  0  0  0
    4.7812    6.0604    0.0000 C   0  0  0  0  0  0  0  0  0  0  0  0
    4.0668    5.6479    0.0000 C   0  0  0  0  0  0  0  0  0  0  0  0
    3.3523    6.0604    0.0000 C   0  0  0  0  0  0  0  0  0  0  0  0
    2.6378    5.6479    0.0000 O   0  0  0  0  0  0  0  0  0  0  0  0
    3.3523    6.8854    0.0000 O   0  0  0  0  0  0  0  0  0  0  0  0
    3.3523    3.5854    0.0000 C   0  0  0  0  0  0  0  0  0  0  0  0
    4.0668    3.1729    0.0000 C   0  0  0  0  0  0  0  0  0  0  0  0
    4.7812    3.5854    0.0000 O   0  0  0  0  0  0  0  0  0  0  0  0
    4.0668    2.3479    0.0000 N   0  0  0  0  0  0  0  0  0  0  0  0
    3.3523    1.9354    0.0000 C   0  0  0  0  0  0  0  0  0  0  0  0
    3.3523    1.1104    0.0000 C   0  0  0  0  0  0  0  0  0  0  0  0
    2.6378    0.6979    0.0000 C   0  0  0  0  0  0  0  0  0  0  0  0
    1.9233    1.1104    0.0000 C   0  0  0  0  0  0  0  0  0  0  0  0
    1.1387    0.8555    0.0000 N   0  0  0  0  0  0  0  0  0  0  0  0
    0.6538    1.5229    0.0000 C   0  0  0  0  0  0  0  0  0  0  0  0
   -0.1712    1.5229    0.0000 N   0  0  0  0  0  0  0  0  0  0  0  0
    1.1387    2.1904    0.0000 N   0  0  0  0  0  0  0  0  0  0  0  0
    1.9233    1.9354    0.0000 C   0  0  0  0  0  0  0  0  0  0  0  0
    2.6378    2.3479    0.0000 C   0  0  0  0  0  0  0  0  0  0  0  0
    2.6378    3.1729    0.0000 N   0  0  0  0  0  0  0  0  0  0  0  0
  1  2  1  0  0  0  0
  2  3  1  0  0  0  0
  3  4  4  0  0  0  0
  4  5  4  0  0  0  0
  5  6  4  0  0  0  0
  6  7  1  0  0  0  0
  7  8  4  0  0  0  0
  8  9  4  0  0  0  0
  9 10  4  0  0  0  0
 10 11  1  0  0  0  0
 11 12  2  0  0  0  0
 11 13  1  0  0  0  0
 13 14  1  0  0  0  0
 14 15  1  0  0  0  0
 15 16  1  0  0  0  0
 15 17  1  0  0  0  0
 15 18  1  0  0  0  0
 10 19  4  0  0  0  0
 19 20  4  0  0  0  0
  7 20  4  0  0  0  0
 20 21  1  0  0  0  0
 21 22  2  0  0  0  0
 21 23  1  0  0  0  0
  6 24  4  0  0  0  0
 24 25  1  0  0  0  0
 25 26  2  0  0  0  0
 25 27  1  0  0  0  0
 27 28  1  0  0  0  0
 28 29  4  0  0  0  0
 29 30  4  0  0  0  0
 30 31  4  0  0  0  0
 31 32  4  0  0  0  0
 32 33  4  0  0  0  0
 33 34  1  0  0  0  0
 33 35  4  0  0  0  0
 35 36  4  0  0  0  0
 31 36  4  0  0  0  0
 36 37  4  0  0  0  0
 28 37  4  0  0  0  0
 24 38  4  0  0  0  0
  3 38  4  0  0  0  0
M  STY  1   1 DAT
M  SAL   1  1  35
M  SDT   1 MRV_IMPLICIT_H                                        
M  SDD   1     0.0000    0.0000    DR    ALL  0       0  
M  SED   1 IMPL_H1
M  END
>  <CdId>
358332

>  <Mol Weight>
516.5484

>  <Formula>
C27H28N6O5

>  <cmpd_chemblid>
CHEMBL2417909

>  <std_type>
Ki

>  <std_value>
33.5

>  <std_unit>
nM

>  <target_id>
CHEMBL2016

>  <target_name>
Coagulation factor IX

>  <organism>
Homo sapiens

>  <target_type>
SINGLE PROTEIN

$$$$

  Mrv0541 08052111042D          

 43 48  0  0  1  0            999 V2000
    3.1599    3.9849    0.0000 C   0  0  0  0  0  0  0  0  0  0  0  0
    3.9849    3.9849    0.0000 C   0  0  0  0  0  0  0  0  0  0  0  0
    4.3974    4.6993    0.0000 C   0  0  0  0  0  0  0  0  0  0  0  0
    4.3974    3.2704    0.0000 C   0  0  2  0  0  0  0  0  0  0  0  0
    5.2224    3.2704    0.0000 C   0  0  0  0  0  0  0  0  0  0  0  0
    5.6349    2.5559    0.0000 C   0  0  0  0  0  0  0  0  0  0  0  0
    6.4599    2.5559    0.0000 C   0  0  0  0  0  0  0  0  0  0  0  0
    6.8724    1.8414    0.0000 C   0  0  2  0  0  0  0  0  0  0  0  0
    7.6974    1.8414    0.0000 N   0  0  0  0  0  0  0  0  0  0  0  0
    8.1099    2.5559    0.0000 C   0  0  0  0  0  0  0  0  0  0  0  0
    8.9349    2.5559    0.0000 C   0  0  0  0  0  0  0  0  0  0  0  0
    9.3474    1.8414    0.0000 C   0  0  0  0  0  0  0  0  0  0  0  0
   10.1724    1.8414    0.0000 C   0  0  0  0  0  0  0  0  0  0  0  0
   10.5849    2.5559    0.0000 C   0  0  0  0  0  0  0  0  0  0  0  0
   10.1724    3.2704    0.0000 N   0  0  0  0  0  0  0  0  0  0  0  0
    9.3519    3.3566    0.0000 C   0  0  0  0  0  0  0  0  0  0  0  0
    9.1803    4.1636    0.0000 N   0  0  0  0  0  0  0  0  0  0  0  0
    9.8948    4.5761    0.0000 N   0  0  0  0  0  0  0  0  0  0  0  0
   10.5079    4.0241    0.0000 N   0  0  0  0  0  0  0  0  0  0  0  0
   11.4099    2.5559    0.0000 C   0  0  0  0  0  0  0  0  0  0  0  0
   11.8224    1.8414    0.0000 C   0  0  0  0  0  0  0  0  0  0  0  0
   11.4099    1.1270    0.0000 C   0  0  0  0  0  0  0  0  0  0  0  0
   11.8224    0.4125    0.0000 Cl  0  0  0  0  0  0  0  0  0  0  0  0
   10.5849    1.1270    0.0000 C   0  0  0  0  0  0  0  0  0  0  0  0
   10.1724    0.4125    0.0000 F   0  0  0  0  0  0  0  0  0  0  0  0
    8.9349    1.1270    0.0000 C   0  0  0  0  0  0  0  0  0  0  0  0
    8.1099    1.1270    0.0000 C   0  0  0  0  0  0  0  0  0  0  0  0
    7.6974    0.4125    0.0000 O   0  0  0  0  0  0  0  0  0  0  0  0
    6.4599    1.1270    0.0000 C   0  0  0  0  0  0  0  0  0  0  0  0
    5.6349    1.1270    0.0000 C   0  0  0  0  0  0  0  0  0  0  0  0
    5.2224    0.4125    0.0000 C   0  0  0  0  0  0  0  0  0  0  0  0
    5.6349   -0.3020    0.0000 C   0  0  0  0  0  0  0  0  0  0  0  0
    6.4599   -0.3020    0.0000 C   0  0  0  0  0  0  0  0  0  0  0  0
    6.8724    0.4125    0.0000 N   0  0  0  0  0  0  0  0  0  0  0  0
    4.3974    0.4125    0.0000 C   0  0  0  0  0  0  0  0  0  0  0  0
    3.9849   -0.3020    0.0000 C   0  0  0  0  0  0  0  0  0  0  0  0
    3.1599   -0.3020    0.0000 C   0  0  0  0  0  0  0  0  0  0  0  0
    2.7474    0.4125    0.0000 C   0  0  0  0  0  0  0  0  0  0  0  0
    3.1599    1.1270    0.0000 C   0  0  0  0  0  0  0  0  0  0  0  0
    3.9849    1.1270    0.0000 C   0  0  0  0  0  0  0  0  0  0  0  0
    4.3974    1.8414    0.0000 N   0  0  0  0  0  0  0  0  0  0  0  0
    3.9849    2.5559    0.0000 C   0  0  0  0  0  0  0  0  0  0  0  0
    3.1599    2.5559    0.0000 O   0  0  0  0  0  0  0  0  0  0  0  0
  1  2  1  0  0  0  0
  2  3  1  0  0  0  0
  4  2  1  6  0  0  0
  4  5  1  0  0  0  0
  5  6  1  0  0  0  0
  6  7  1  0  0  0  0
  7  8  1  0  0  0  0
  8  9  1  6  0  0  0
  9 10  1  0  0  0  0
 10 11  1  0  0  0  0
 11 12  1  0  0  0  0
 12 13  1  0  0  0  0
 13 14  4  0  0  0  0
 14 15  1  0  0  0  0
 15 16  4  0  0  0  0
 16 17  4  0  0  0  0
 17 18  4  0  0  0  0
 18 19  4  0  0  0  0
 15 19  4  0  0  0  0
 14 20  4  0  0  0  0
 20 21  4  0  0  0  0
 21 22  4  0  0  0  0
 22 23  1  0  0  0  0
 22 24  4  0  0  0  0
 13 24  4  0  0  0  0
 24 25  1  0  0  0  0
 12 26  2  0  0  0  0
 26 27  1  0  0  0  0
  9 27  1  0  0  0  0
 27 28  2  0  0  0  0
  8 29  1  0  0  0  0
 29 30  4  0  0  0  0
 30 31  4  0  0  0  0
 31 32  4  0  0  0  0
 32 33  4  0  0  0  0
 33 34  4  0  0  0  0
 29 34  4  0  0  0  0
 31 35  1  0  0  0  0
 35 36  4  0  0  0  0
 36 37  4  0  0  0  0
 37 38  4  0  0  0  0
 38 39  4  0  0  0  0
 39 40  4  0  0  0  0
 35 40  4  0  0  0  0
 40 41  1  0  0  0  0
 41 42  1  0  0  0  0
  4 42  1  0  0  0  0
 42 43  2  0  0  0  0
M  END
>  <CdId>
358333

>  <Mol Weight>
600.086

>  <Formula>
C32H31ClFN7O2

>  <cmpd_chemblid>
CHEMBL3948120

>  <std_type>
Ki

>  <std_value>
0.09

>  <std_unit>
nM

>  <target_id>
CHEMBL2016

>  <target_name>
Coagulation factor IX

>  <organism>
Homo sapiens

>  <target_type>
SINGLE PROTEIN

$$$$

  Mrv0541 08052111042D          

 29 32  0  0  0  0            999 V2000
   -4.3729    1.1952    0.0000 N   0  0  0  0  0  0  0  0  0  0  0  0
   -3.5479    1.1952    0.0000 C   0  0  0  0  0  0  0  0  0  0  0  0
   -3.1354    1.9096    0.0000 N   0  0  0  0  0  0  0  0  0  0  0  0
   -3.1354    0.4807    0.0000 C   0  0  0  0  0  0  0  0  0  0  0  0
   -2.3149    0.3945    0.0000 C   0  0  0  0  0  0  0  0  0  0  0  0
   -2.1434   -0.4125    0.0000 C   0  0  0  0  0  0  0  0  0  0  0  0
   -1.4289   -0.8250    0.0000 C   0  0  0  0  0  0  0  0  0  0  0  0
   -0.7145   -0.4125    0.0000 O   0  0  0  0  0  0  0  0  0  0  0  0
    0.0000   -0.8250    0.0000 C   0  0  0  0  0  0  0  0  0  0  0  0
    0.7145   -0.4125    0.0000 C   0  0  0  0  0  0  0  0  0  0  0  0
    1.4289   -0.8250    0.0000 N   0  0  0  0  0  0  0  0  0  0  0  0
    2.1434   -0.4125    0.0000 C   0  0  0  0  0  0  0  0  0  0  0  0
    2.8579   -0.8250    0.0000 C   0  0  0  0  0  0  0  0  0  0  0  0
    3.5724   -0.4125    0.0000 C   0  0  0  0  0  0  0  0  0  0  0  0
    4.2868   -0.8250    0.0000 C   0  0  0  0  0  0  0  0  0  0  0  0
    4.2868   -1.6500    0.0000 C   0  0  0  0  0  0  0  0  0  0  0  0
    3.5724   -2.0625    0.0000 C   0  0  0  0  0  0  0  0  0  0  0  0
    2.8579   -1.6500    0.0000 C   0  0  0  0  0  0  0  0  0  0  0  0
   -0.0000   -1.6500    0.0000 C   0  0  0  0  0  0  0  0  0  0  0  0
    0.7145   -2.0625    0.0000 C   0  0  0  0  0  0  0  0  0  0  0  0
    0.7145   -2.8875    0.0000 C   0  0  0  0  0  0  0  0  0  0  0  0
    0.0000   -3.3000    0.0000 C   0  0  0  0  0  0  0  0  0  0  0  0
   -0.7145   -2.8875    0.0000 C   0  0  0  0  0  0  0  0  0  0  0  0
   -0.7145   -2.0625    0.0000 C   0  0  0  0  0  0  0  0  0  0  0  0
   -1.4289   -1.6500    0.0000 C   0  0  0  0  0  0  0  0  0  0  0  0
   -2.1434   -2.0625    0.0000 C   0  0  0  0  0  0  0  0  0  0  0  0
   -2.8579   -1.6500    0.0000 C   0  0  0  0  0  0  0  0  0  0  0  0
   -2.8579   -0.8250    0.0000 C   0  0  0  0  0  0  0  0  0  0  0  0
   -3.4710   -0.2730    0.0000 S   0  0  0  0  0  0  0  0  0  0  0  0
  1  2  2  0  0  0  0
  2  3  1  0  0  0  0
  2  4  1  0  0  0  0
  4  5  4  0  0  0  0
  5  6  4  0  0  0  0
  6  7  4  0  0  0  0
  7  8  1  0  0  0  0
  8  9  1  0  0  0  0
  9 10  1  0  0  0  0
 10 11  1  0  0  0  0
 11 12  1  0  0  0  0
 12 13  1  0  0  0  0
 13 14  4  0  0  0  0
 14 15  4  0  0  0  0
 15 16  4  0  0  0  0
 16 17  4  0  0  0  0
 17 18  4  0  0  0  0
 13 18  4  0  0  0  0
  9 19  1  0  0  0  0
 19 20  4  0  0  0  0
 20 21  4  0  0  0  0
 21 22  4  0  0  0  0
 22 23  4  0  0  0  0
 23 24  4  0  0  0  0
 19 24  4  0  0  0  0
  7 25  4  0  0  0  0
 25 26  4  0  0  0  0
 26 27  4  0  0  0  0
 27 28  4  0  0  0  0
  6 28  4  0  0  0  0
 28 29  4  0  0  0  0
  4 29  4  0  0  0  0
M  END
>  <CdId>
358334

>  <Mol Weight>
401.524

>  <Formula>
C24H23N3OS

>  <cmpd_chemblid>
CHEMBL599001

>  <std_type>
Ki

>  <std_value>
100.0

>  <std_unit>
nM

>  <target_id>
CHEMBL2016

>  <target_name>
Coagulation factor IX

>  <organism>
Homo sapiens

>  <target_type>
SINGLE PROTEIN

$$$$

  Mrv0541 08052111042D          

 40 44  0  0  1  0            999 V2000
    3.9849    3.9849    0.0000 C   0  0  0  0  0  0  0  0  0  0  0  0
    4.3974    3.2704    0.0000 C   0  0  0  0  0  0  0  0  0  0  0  0
    5.2224    3.2704    0.0000 C   0  0  0  0  0  0  0  0  0  0  0  0
    5.6349    2.5559    0.0000 C   0  0  0  0  0  0  0  0  0  0  0  0
    6.4599    2.5559    0.0000 C   0  0  0  0  0  0  0  0  0  0  0  0
    6.8724    1.8414    0.0000 C   0  0  2  0  0  0  0  0  0  0  0  0
    7.6974    1.8414    0.0000 N   0  0  0  0  0  0  0  0  0  0  0  0
    8.1099    2.5559    0.0000 C   0  0  0  0  0  0  0  0  0  0  0  0
    8.9349    2.5559    0.0000 C   0  0  0  0  0  0  0  0  0  0  0  0
    9.3474    1.8414    0.0000 C   0  0  0  0  0  0  0  0  0  0  0  0
   10.1724    1.8414    0.0000 C   0  0  0  0  0  0  0  0  0  0  0  0
   10.5849    2.5559    0.0000 C   0  0  0  0  0  0  0  0  0  0  0  0
   10.1724    3.2704    0.0000 F   0  0  0  0  0  0  0  0  0  0  0  0
   11.4099    2.5559    0.0000 C   0  0  0  0  0  0  0  0  0  0  0  0
   11.8224    1.8414    0.0000 C   0  0  0  0  0  0  0  0  0  0  0  0
   11.4099    1.1270    0.0000 C   0  0  0  0  0  0  0  0  0  0  0  0
   11.8224    0.4125    0.0000 Cl  0  0  0  0  0  0  0  0  0  0  0  0
   10.5849    1.1270    0.0000 C   0  0  0  0  0  0  0  0  0  0  0  0
   10.1724    0.4125    0.0000 F   0  0  0  0  0  0  0  0  0  0  0  0
    8.9349    1.1270    0.0000 C   0  0  0  0  0  0  0  0  0  0  0  0
    8.1099    1.1270    0.0000 C   0  0  0  0  0  0  0  0  0  0  0  0
    7.6974    0.4125    0.0000 O   0  0  0  0  0  0  0  0  0  0  0  0
    6.4599    1.1270    0.0000 C   0  0  0  0  0  0  0  0  0  0  0  0
    5.6349    1.1270    0.0000 C   0  0  0  0  0  0  0  0  0  0  0  0
    5.2224    0.4125    0.0000 C   0  0  0  0  0  0  0  0  0  0  0  0
    5.6349   -0.3020    0.0000 C   0  0  0  0  0  0  0  0  0  0  0  0
    6.4599   -0.3020    0.0000 C   0  0  0  0  0  0  0  0  0  0  0  0
    6.8724    0.4125    0.0000 N   0  0  0  0  0  0  0  0  0  0  0  0
    4.3974    0.4125    0.0000 C   0  0  0  0  0  0  0  0  0  0  0  0
    3.9849   -0.3020    0.0000 C   0  0  0  0  0  0  0  0  0  0  0  0
    3.1599   -0.3020    0.0000 C   0  0  0  0  0  0  0  0  0  0  0  0
    2.7474    0.4125    0.0000 C   0  0  0  0  0  0  0  0  0  0  0  0
    1.9224    0.4125    0.0000 C   0  0  0  0  0  0  0  0  0  0  0  0
    1.5099   -0.3020    0.0000 N   0  0  0  0  0  0  0  0  0  0  0  0
    1.5099    1.1270    0.0000 O   0  0  0  0  0  0  0  0  0  0  0  0
    3.1599    1.1270    0.0000 C   0  0  0  0  0  0  0  0  0  0  0  0
    3.9849    1.1270    0.0000 C   0  0  0  0  0  0  0  0  0  0  0  0
    4.3974    1.8414    0.0000 N   0  0  0  0  0  0  0  0  0  0  0  0
    3.9849    2.5559    0.0000 C   0  0  0  0  0  0  0  0  0  0  0  0
    3.1599    2.5559    0.0000 O   0  0  0  0  0  0  0  0  0  0  0  0
  1  2  1  0  0  0  0
  2  3  1  0  0  0  0
  3  4  1  0  0  0  0
  4  5  1  0  0  0  0
  5  6  1  0  0  0  0
  6  7  1  6  0  0  0
  7  8  1  0  0  0  0
  8  9  1  0  0  0  0
  9 10  1  0  0  0  0
 10 11  1  0  0  0  0
 11 12  4  0  0  0  0
 12 13  1  0  0  0  0
 12 14  4  0  0  0  0
 14 15  4  0  0  0  0
 15 16  4  0  0  0  0
 16 17  1  0  0  0  0
 16 18  4  0  0  0  0
 11 18  4  0  0  0  0
 18 19  1  0  0  0  0
 10 20  2  0  0  0  0
 20 21  1  0  0  0  0
  7 21  1  0  0  0  0
 21 22  2  0  0  0  0
  6 23  1  0  0  0  0
 23 24  4  0  0  0  0
 24 25  4  0  0  0  0
 25 26  4  0  0  0  0
 26 27  4  0  0  0  0
 27 28  4  0  0  0  0
 23 28  4  0  0  0  0
 25 29  1  0  0  0  0
 29 30  4  0  0  0  0
 30 31  4  0  0  0  0
 31 32  4  0  0  0  0
 32 33  1  0  0  0  0
 33 34  1  0  0  0  0
 33 35  2  0  0  0  0
 32 36  4  0  0  0  0
 36 37  4  0  0  0  0
 29 37  4  0  0  0  0
 37 38  1  0  0  0  0
 38 39  1  0  0  0  0
  2 39  1  0  0  0  0
 39 40  2  0  0  0  0
M  END
>  <CdId>
358336

>  <Mol Weight>
565.01

>  <Formula>
C30H27ClF2N4O3

>  <cmpd_chemblid>
CHEMBL3929617

>  <std_type>
Ki

>  <std_value>
17.42

>  <std_unit>
nM

>  <target_id>
CHEMBL2016

>  <target_name>
Coagulation factor IX

>  <organism>
Homo sapiens

>  <target_type>
SINGLE PROTEIN

$$$$

  Mrv0541 08052111042D          

 35 38  0  0  1  0            999 V2000
   -5.8466    4.6102    0.0000 C   0  0  0  0  0  0  0  0  0  0  0  0
   -5.6751    3.8032    0.0000 N   0  0  0  0  0  0  0  0  0  0  0  0
   -6.2882    3.2512    0.0000 C   0  0  0  0  0  0  0  0  0  0  0  0
   -4.8904    3.5483    0.0000 C   0  0  0  0  0  0  0  0  0  0  0  0
   -4.2230    4.0332    0.0000 N   0  0  0  0  0  0  0  0  0  0  0  0
   -3.5556    3.5483    0.0000 C   0  0  0  0  0  0  0  0  0  0  0  0
   -3.8105    2.7637    0.0000 C   0  0  0  0  0  0  0  0  0  0  0  0
   -3.3256    2.0962    0.0000 S   0  0  0  0  0  0  0  0  0  0  0  0
   -3.9930    1.6113    0.0000 O   0  0  0  0  0  0  0  0  0  0  0  0
   -2.6581    2.5812    0.0000 O   0  0  0  0  0  0  0  0  0  0  0  0
   -2.8407    1.4288    0.0000 N   0  0  0  0  0  0  0  0  0  0  0  0
   -2.0202    1.5150    0.0000 C   0  0  1  0  0  0  0  0  0  0  0  0
   -1.6077    2.2295    0.0000 C   0  0  0  0  0  0  0  0  0  0  0  0
   -0.8007    2.0580    0.0000 C   0  0  0  0  0  0  0  0  0  0  0  0
   -0.7145    1.2375    0.0000 N   0  0  0  0  0  0  0  0  0  0  0  0
    0.0000    0.8250    0.0000 C   0  0  2  0  0  0  0  0  0  0  0  0
    0.0000    0.0000    0.0000 C   0  0  0  0  0  0  0  0  0  0  0  0
    0.7145   -0.4125    0.0000 C   0  0  0  0  0  0  0  0  0  0  0  0
    1.4289    0.0000    0.0000 C   0  0  0  0  0  0  0  0  0  0  0  0
    2.1434   -0.4125    0.0000 C   0  0  0  0  0  0  0  0  0  0  0  0
    2.8579    0.0000    0.0000 C   0  0  0  0  0  0  0  0  0  0  0  0
    3.5724   -0.4125    0.0000 C   0  0  0  0  0  0  0  0  0  0  0  0
    3.5724   -1.2375    0.0000 N   0  0  0  0  0  0  0  0  0  0  0  0
    2.8579   -1.6500    0.0000 C   0  0  0  0  0  0  0  0  0  0  0  0
    2.8579   -2.4750    0.0000 N   0  0  0  0  0  0  0  0  0  0  0  0
    2.1434   -1.2375    0.0000 C   0  0  0  0  0  0  0  0  0  0  0  0
    1.4289   -1.6500    0.0000 C   0  0  0  0  0  0  0  0  0  0  0  0
    0.7145   -1.2375    0.0000 C   0  0  0  0  0  0  0  0  0  0  0  0
    0.0000   -1.6500    0.0000 F   0  0  0  0  0  0  0  0  0  0  0  0
    0.7145    1.2375    0.0000 C   0  0  0  0  0  0  0  0  0  0  0  0
    0.7145    2.0625    0.0000 O   0  0  0  0  0  0  0  0  0  0  0  0
    1.4289    0.8250    0.0000 O   0  0  0  0  0  0  0  0  0  0  0  0
   -1.4681    0.9019    0.0000 C   0  0  0  0  0  0  0  0  0  0  0  0
   -1.6397    0.0950    0.0000 O   0  0  0  0  0  0  0  0  0  0  0  0
   -4.6355    2.7637    0.0000 S   0  0  0  0  0  0  0  0  0  0  0  0
  1  2  1  0  0  0  0
  2  3  1  0  0  0  0
  2  4  1  0  0  0  0
  4  5  4  0  0  0  0
  5  6  4  0  0  0  0
  6  7  4  0  0  0  0
  7  8  1  0  0  0  0
  8  9  2  0  0  0  0
  8 10  2  0  0  0  0
  8 11  1  0  0  0  0
 12 11  1  1  0  0  0
 12 13  1  0  0  0  0
 13 14  1  0  0  0  0
 14 15  1  0  0  0  0
 16 15  1  1  0  0  0
 16 17  1  0  0  0  0
 17 18  1  0  0  0  0
 18 19  4  0  0  0  0
 19 20  4  0  0  0  0
 20 21  4  0  0  0  0
 21 22  4  0  0  0  0
 22 23  4  0  0  0  0
 23 24  4  0  0  0  0
 24 25  1  0  0  0  0
 24 26  4  0  0  0  0
 20 26  4  0  0  0  0
 26 27  4  0  0  0  0
 27 28  4  0  0  0  0
 18 28  4  0  0  0  0
 28 29  1  0  0  0  0
 16 30  1  0  0  0  0
 30 31  2  0  0  0  0
 30 32  1  0  0  0  0
 15 33  1  0  0  0  0
 12 33  1  0  0  0  0
 33 34  2  0  0  0  0
  7 35  4  0  0  0  0
  4 35  4  0  0  0  0
M  END
>  <CdId>
358337

>  <Mol Weight>
522.573

>  <Formula>
C21H23FN6O5S2

>  <cmpd_chemblid>
CHEMBL3983257

>  <std_type>
Ki

>  <std_value>
50.0

>  <std_unit>
nM

>  <target_id>
CHEMBL2016

>  <target_name>
Coagulation factor IX

>  <organism>
Homo sapiens

>  <target_type>
SINGLE PROTEIN

$$$$

  Mrv0541 08052111042D          

 38 41  0  0  1  0            999 V2000
    0.0000    0.8250    0.0000 C   0  0  0  0  0  0  0  0  0  0  0  0
    0.0000    0.0000    0.0000 O   0  0  0  0  0  0  0  0  0  0  0  0
    0.7145   -0.4125    0.0000 C   0  0  0  0  0  0  0  0  0  0  0  0
    1.4289    0.0000    0.0000 C   0  0  0  0  0  0  0  0  0  0  0  0
    2.1434   -0.4125    0.0000 C   0  0  0  0  0  0  0  0  0  0  0  0
    2.8579    0.0000    0.0000 C   0  0  0  0  0  0  0  0  0  0  0  0
    2.8579    0.8250    0.0000 N   0  0  0  0  0  0  0  0  0  0  0  0
    3.5724   -0.4125    0.0000 N   0  0  0  0  0  0  0  0  0  0  0  0
    3.5724   -1.2375    0.0000 C   0  0  0  0  0  0  0  0  0  0  0  0
    2.8579   -1.6500    0.0000 C   0  0  0  0  0  0  0  0  0  0  0  0
    2.1434   -1.2375    0.0000 C   0  0  0  0  0  0  0  0  0  0  0  0
    1.4289   -1.6500    0.0000 C   0  0  0  0  0  0  0  0  0  0  0  0
    0.7145   -1.2375    0.0000 C   0  0  0  0  0  0  0  0  0  0  0  0
    0.0000   -1.6500    0.0000 C   0  0  0  0  0  0  0  0  0  0  0  0
    0.0000   -2.4750    0.0000 C   0  0  2  0  0  0  0  0  0  0  0  0
   -0.7145   -2.8875    0.0000 C   0  0  0  0  0  0  0  0  0  0  0  0
   -0.7145   -3.7125    0.0000 O   0  0  0  0  0  0  0  0  0  0  0  0
   -1.4289   -2.4750    0.0000 O   0  0  0  0  0  0  0  0  0  0  0  0
    0.7145   -2.8875    0.0000 N   0  0  0  0  0  0  0  0  0  0  0  0
    1.4681   -2.5519    0.0000 C   0  0  0  0  0  0  0  0  0  0  0  0
    2.0202   -3.1650    0.0000 C   0  0  0  0  0  0  0  0  0  0  0  0
    1.6077   -3.8795    0.0000 C   0  0  2  0  0  0  0  0  0  0  0  0
    1.9432   -4.6332    0.0000 N   0  0  0  0  0  0  0  0  0  0  0  0
    1.4583   -5.3006    0.0000 S   0  0  0  0  0  0  0  0  0  0  0  0
    0.7909   -4.8157    0.0000 O   0  0  0  0  0  0  0  0  0  0  0  0
    2.1258   -5.7855    0.0000 O   0  0  0  0  0  0  0  0  0  0  0  0
    0.9734   -5.9681    0.0000 C   0  0  0  0  0  0  0  0  0  0  0  0
    1.3089   -6.7217    0.0000 C   0  0  0  0  0  0  0  0  0  0  0  0
    0.8240   -7.3892    0.0000 N   0  0  0  0  0  0  0  0  0  0  0  0
    0.0035   -7.3029    0.0000 C   0  0  0  0  0  0  0  0  0  0  0  0
   -0.4814   -7.9704    0.0000 N   0  0  0  0  0  0  0  0  0  0  0  0
   -0.1458   -8.7241    0.0000 C   0  0  0  0  0  0  0  0  0  0  0  0
   -1.3019   -7.8841    0.0000 C   0  0  0  0  0  0  0  0  0  0  0  0
   -0.3320   -6.5493    0.0000 C   0  0  0  0  0  0  0  0  0  0  0  0
   -1.1525   -6.4630    0.0000 C   0  0  0  0  0  0  0  0  0  0  0  0
    0.1529   -5.8818    0.0000 C   0  0  0  0  0  0  0  0  0  0  0  0
    0.8007   -3.7080    0.0000 C   0  0  0  0  0  0  0  0  0  0  0  0
    0.1876   -4.2600    0.0000 O   0  0  0  0  0  0  0  0  0  0  0  0
  1  2  1  0  0  0  0
  2  3  1  0  0  0  0
  3  4  4  0  0  0  0
  4  5  4  0  0  0  0
  5  6  4  0  0  0  0
  6  7  1  0  0  0  0
  6  8  4  0  0  0  0
  8  9  4  0  0  0  0
  9 10  4  0  0  0  0
 10 11  4  0  0  0  0
  5 11  4  0  0  0  0
 11 12  4  0  0  0  0
 12 13  4  0  0  0  0
  3 13  4  0  0  0  0
 13 14  1  0  0  0  0
 14 15  1  0  0  0  0
 15 16  1  0  0  0  0
 16 17  2  0  0  0  0
 16 18  1  0  0  0  0
 15 19  1  1  0  0  0
 19 20  1  0  0  0  0
 20 21  1  0  0  0  0
 21 22  1  0  0  0  0
 22 23  1  6  0  0  0
 23 24  1  0  0  0  0
 24 25  2  0  0  0  0
 24 26  2  0  0  0  0
 24 27  1  0  0  0  0
 27 28  4  0  0  0  0
 28 29  4  0  0  0  0
 29 30  4  0  0  0  0
 30 31  1  0  0  0  0
 31 32  1  0  0  0  0
 31 33  1  0  0  0  0
 30 34  4  0  0  0  0
 34 35  1  0  0  0  0
 34 36  4  0  0  0  0
 27 36  4  0  0  0  0
 22 37  1  0  0  0  0
 19 37  1  0  0  0  0
 37 38  2  0  0  0  0
M  END
>  <CdId>
358338

>  <Mol Weight>
542.607

>  <Formula>
C25H30N6O6S

>  <cmpd_chemblid>
CHEMBL3973493

>  <std_type>
Ki

>  <std_value>
75.0

>  <std_unit>
nM

>  <target_id>
CHEMBL2016

>  <target_name>
Coagulation factor IX

>  <organism>
Homo sapiens

>  <target_type>
SINGLE PROTEIN

$$$$

  Mrv0541 08052111042D          

 35 38  0  0  1  0            999 V2000
   -6.9159   -4.4082    0.0000 C   0  0  0  0  0  0  0  0  0  0  0  0
   -6.1312   -4.6631    0.0000 N   0  0  0  0  0  0  0  0  0  0  0  0
   -5.9597   -5.4701    0.0000 C   0  0  0  0  0  0  0  0  0  0  0  0
   -5.5181   -4.1111    0.0000 C   0  0  0  0  0  0  0  0  0  0  0  0
   -5.6044   -3.2906    0.0000 N   0  0  0  0  0  0  0  0  0  0  0  0
   -4.8507   -2.9551    0.0000 C   0  0  0  0  0  0  0  0  0  0  0  0
   -4.2987   -3.5682    0.0000 C   0  0  0  0  0  0  0  0  0  0  0  0
   -3.4782   -3.4819    0.0000 S   0  0  0  0  0  0  0  0  0  0  0  0
   -3.3920   -4.3024    0.0000 O   0  0  0  0  0  0  0  0  0  0  0  0
   -3.5644   -2.6614    0.0000 O   0  0  0  0  0  0  0  0  0  0  0  0
   -2.6577   -3.3957    0.0000 N   0  0  0  0  0  0  0  0  0  0  0  0
   -2.3221   -2.6420    0.0000 C   0  0  1  0  0  0  0  0  0  0  0  0
   -2.7346   -1.9275    0.0000 C   0  0  0  0  0  0  0  0  0  0  0  0
   -2.1826   -1.3144    0.0000 C   0  0  0  0  0  0  0  0  0  0  0  0
   -1.4289   -1.6500    0.0000 N   0  0  0  0  0  0  0  0  0  0  0  0
   -0.7145   -1.2375    0.0000 C   0  0  2  0  0  0  0  0  0  0  0  0
    0.0000   -1.6500    0.0000 C   0  0  0  0  0  0  0  0  0  0  0  0
    0.7145   -1.2375    0.0000 C   0  0  0  0  0  0  0  0  0  0  0  0
    0.7145   -0.4125    0.0000 C   0  0  0  0  0  0  0  0  0  0  0  0
    1.4289    0.0000    0.0000 C   0  0  0  0  0  0  0  0  0  0  0  0
    2.1434   -0.4125    0.0000 C   0  0  0  0  0  0  0  0  0  0  0  0
    2.8579    0.0000    0.0000 C   0  0  0  0  0  0  0  0  0  0  0  0
    2.8579    0.8250    0.0000 N   0  0  0  0  0  0  0  0  0  0  0  0
    3.5724   -0.4125    0.0000 N   0  0  0  0  0  0  0  0  0  0  0  0
    3.5724   -1.2375    0.0000 C   0  0  0  0  0  0  0  0  0  0  0  0
    2.8579   -1.6500    0.0000 C   0  0  0  0  0  0  0  0  0  0  0  0
    2.1434   -1.2375    0.0000 C   0  0  0  0  0  0  0  0  0  0  0  0
    1.4289   -1.6500    0.0000 C   0  0  0  0  0  0  0  0  0  0  0  0
    1.4289   -2.4750    0.0000 F   0  0  0  0  0  0  0  0  0  0  0  0
   -0.7145   -0.4125    0.0000 C   0  0  0  0  0  0  0  0  0  0  0  0
   -1.4289   -0.0000    0.0000 O   0  0  0  0  0  0  0  0  0  0  0  0
    0.0000   -0.0000    0.0000 O   0  0  0  0  0  0  0  0  0  0  0  0
   -1.5152   -2.4705    0.0000 C   0  0  0  0  0  0  0  0  0  0  0  0
   -0.9021   -3.0225    0.0000 O   0  0  0  0  0  0  0  0  0  0  0  0
   -4.7112   -4.2826    0.0000 S   0  0  0  0  0  0  0  0  0  0  0  0
  1  2  1  0  0  0  0
  2  3  1  0  0  0  0
  2  4  1  0  0  0  0
  4  5  4  0  0  0  0
  5  6  4  0  0  0  0
  6  7  4  0  0  0  0
  7  8  1  0  0  0  0
  8  9  2  0  0  0  0
  8 10  2  0  0  0  0
  8 11  1  0  0  0  0
 12 11  1  1  0  0  0
 12 13  1  0  0  0  0
 13 14  1  0  0  0  0
 14 15  1  0  0  0  0
 16 15  1  1  0  0  0
 16 17  1  0  0  0  0
 17 18  1  0  0  0  0
 18 19  4  0  0  0  0
 19 20  4  0  0  0  0
 20 21  4  0  0  0  0
 21 22  4  0  0  0  0
 22 23  1  0  0  0  0
 22 24  4  0  0  0  0
 24 25  4  0  0  0  0
 25 26  4  0  0  0  0
 26 27  4  0  0  0  0
 21 27  4  0  0  0  0
 27 28  4  0  0  0  0
 18 28  4  0  0  0  0
 28 29  1  0  0  0  0
 16 30  1  0  0  0  0
 30 31  2  0  0  0  0
 30 32  1  0  0  0  0
 15 33  1  0  0  0  0
 12 33  1  0  0  0  0
 33 34  2  0  0  0  0
  7 35  4  0  0  0  0
  4 35  4  0  0  0  0
M  END
>  <CdId>
358339

>  <Mol Weight>
522.573

>  <Formula>
C21H23FN6O5S2

>  <cmpd_chemblid>
CHEMBL3954407

>  <std_type>
Ki

>  <std_value>
80.0

>  <std_unit>
nM

>  <target_id>
CHEMBL2016

>  <target_name>
Coagulation factor IX

>  <organism>
Homo sapiens

>  <target_type>
SINGLE PROTEIN

$$$$

  Mrv0541 08052111042D          

 45 49  0  0  0  0            999 V2000
    2.4306   -2.3804    0.0000 N   0  0  0  0  0  0  0  0  0  0  0  0
    1.7162   -1.9679    0.0000 C   0  0  0  0  0  0  0  0  0  0  0  0
    1.7162   -1.1429    0.0000 N   0  0  0  0  0  0  0  0  0  0  0  0
    1.0017   -2.3804    0.0000 C   0  0  0  0  0  0  0  0  0  0  0  0
    1.0017   -3.2054    0.0000 C   0  0  0  0  0  0  0  0  0  0  0  0
    0.2872   -3.6179    0.0000 C   0  0  0  0  0  0  0  0  0  0  0  0
   -0.4272   -3.2054    0.0000 C   0  0  0  0  0  0  0  0  0  0  0  0
   -1.2119   -3.4603    0.0000 S   0  0  0  0  0  0  0  0  0  0  0  0
   -1.6968   -2.7929    0.0000 C   0  0  0  0  0  0  0  0  0  0  0  0
   -1.2119   -2.1255    0.0000 C   0  0  0  0  0  0  0  0  0  0  0  0
   -1.4668   -1.3408    0.0000 C   0  0  0  0  0  0  0  0  0  0  0  0
   -2.2738   -1.1693    0.0000 C   0  0  0  0  0  0  0  0  0  0  0  0
   -2.5287   -0.3847    0.0000 C   0  0  0  0  0  0  0  0  0  0  0  0
   -3.3357   -0.2132    0.0000 C   0  0  0  0  0  0  0  0  0  0  0  0
   -3.5906    0.5715    0.0000 C   0  0  0  0  0  0  0  0  0  0  0  0
   -3.0386    1.1845    0.0000 C   0  0  0  0  0  0  0  0  0  0  0  0
   -2.2316    1.0130    0.0000 C   0  0  0  0  0  0  0  0  0  0  0  0
   -1.9767    0.2284    0.0000 C   0  0  0  0  0  0  0  0  0  0  0  0
   -0.9148   -0.7277    0.0000 C   0  0  0  0  0  0  0  0  0  0  0  0
   -0.1078   -0.8993    0.0000 O   0  0  0  0  0  0  0  0  0  0  0  0
   -1.1697    0.0569    0.0000 N   0  0  0  0  0  0  0  0  0  0  0  0
   -0.6177    0.6700    0.0000 C   0  0  0  0  0  0  0  0  0  0  0  0
   -0.8726    1.4546    0.0000 C   0  0  0  0  0  0  0  0  0  0  0  0
   -0.3206    2.0677    0.0000 C   0  0  0  0  0  0  0  0  0  0  0  0
    0.4864    1.8962    0.0000 C   0  0  0  0  0  0  0  0  0  0  0  0
    1.0384    2.5093    0.0000 N   0  0  0  0  0  0  0  0  0  0  0  0
    0.8669    3.3162    0.0000 C   0  0  0  0  0  0  0  0  0  0  0  0
    1.5814    3.7287    0.0000 N   0  0  0  0  0  0  0  0  0  0  0  0
    2.1945    3.1767    0.0000 C   0  0  0  0  0  0  0  0  0  0  0  0
    3.0149    3.2629    0.0000 C   0  0  0  0  0  0  0  0  0  0  0  0
    3.4999    2.5955    0.0000 C   0  0  0  0  0  0  0  0  0  0  0  0
    3.1643    1.8418    0.0000 C   0  0  0  0  0  0  0  0  0  0  0  0
    2.3438    1.7556    0.0000 C   0  0  0  0  0  0  0  0  0  0  0  0
    1.8589    2.4230    0.0000 C   0  0  0  0  0  0  0  0  0  0  0  0
    0.7413    1.1115    0.0000 C   0  0  0  0  0  0  0  0  0  0  0  0
    0.1893    0.4984    0.0000 C   0  0  0  0  0  0  0  0  0  0  0  0
   -0.4272   -2.3804    0.0000 C   0  0  0  0  0  0  0  0  0  0  0  0
    0.2872   -1.9679    0.0000 C   0  0  0  0  0  0  0  0  0  0  0  0
    5.6140   -0.8839    0.0000 O   0  0  0  0  0  0  0  0  0  0  0  0
    6.3284   -0.4714    0.0000 C   0  0  0  0  0  0  0  0  0  0  0  0
    7.0429   -0.8839    0.0000 O   0  0  0  0  0  0  0  0  0  0  0  0
    6.3284    0.3536    0.0000 C   0  0  0  0  0  0  0  0  0  0  0  0
    6.3284    1.1786    0.0000 F   0  0  0  0  0  0  0  0  0  0  0  0
    7.1534    0.3536    0.0000 F   0  0  0  0  0  0  0  0  0  0  0  0
    5.5034    0.3536    0.0000 F   0  0  0  0  0  0  0  0  0  0  0  0
  1  2  2  0  0  0  0
  2  3  1  0  0  0  0
  2  4  1  0  0  0  0
  4  5  4  0  0  0  0
  5  6  4  0  0  0  0
  6  7  4  0  0  0  0
  7  8  4  0  0  0  0
  8  9  4  0  0  0  0
  9 10  4  0  0  0  0
 10 11  1  0  0  0  0
 11 12  1  0  0  0  0
 12 13  1  0  0  0  0
 13 14  4  0  0  0  0
 14 15  4  0  0  0  0
 15 16  4  0  0  0  0
 16 17  4  0  0  0  0
 17 18  4  0  0  0  0
 13 18  4  0  0  0  0
 11 19  1  0  0  0  0
 19 20  2  0  0  0  0
 19 21  1  0  0  0  0
 21 22  1  0  0  0  0
 22 23  4  0  0  0  0
 23 24  4  0  0  0  0
 24 25  4  0  0  0  0
 25 26  1  0  0  0  0
 26 27  4  0  0  0  0
 27 28  4  0  0  0  0
 28 29  4  0  0  0  0
 29 30  4  0  0  0  0
 30 31  4  0  0  0  0
 31 32  4  0  0  0  0
 32 33  4  0  0  0  0
 33 34  4  0  0  0  0
 29 34  4  0  0  0  0
 26 34  4  0  0  0  0
 25 35  4  0  0  0  0
 35 36  4  0  0  0  0
 22 36  4  0  0  0  0
 10 37  4  0  0  0  0
  7 37  4  0  0  0  0
 37 38  4  0  0  0  0
  4 38  4  0  0  0  0
 39 40  2  0  0  0  0
 40 41  1  0  0  0  0
 40 42  1  0  0  0  0
 42 43  1  0  0  0  0
 42 44  1  0  0  0  0
 42 45  1  0  0  0  0
M  END
>  <CdId>
358340

>  <Mol Weight>
629.651

>  <Formula>
C33H26F3N5O3S

>  <cmpd_chemblid>
CHEMBL183384

>  <std_type>
Ki

>  <std_value>
98.0

>  <std_unit>
nM

>  <target_id>
CHEMBL2016

>  <target_name>
Coagulation factor IX

>  <organism>
Homo sapiens

>  <target_type>
SINGLE PROTEIN

$$$$

  Mrv0541 08052111042D          

 46 50  0  0  0  0            999 V2000
    2.5151   -2.4309    0.0000 N   0  0  0  0  0  0  0  0  0  0  0  0
    1.8006   -2.0184    0.0000 C   0  0  0  0  0  0  0  0  0  0  0  0
    1.8006   -1.1934    0.0000 N   0  0  0  0  0  0  0  0  0  0  0  0
    1.0861   -2.4309    0.0000 C   0  0  0  0  0  0  0  0  0  0  0  0
    1.0861   -3.2559    0.0000 C   0  0  0  0  0  0  0  0  0  0  0  0
    0.3717   -3.6684    0.0000 C   0  0  0  0  0  0  0  0  0  0  0  0
   -0.3428   -3.2559    0.0000 C   0  0  0  0  0  0  0  0  0  0  0  0
   -1.1274   -3.5108    0.0000 S   0  0  0  0  0  0  0  0  0  0  0  0
   -1.6123   -2.8434    0.0000 C   0  0  0  0  0  0  0  0  0  0  0  0
   -1.1274   -2.1760    0.0000 C   0  0  0  0  0  0  0  0  0  0  0  0
   -1.3824   -1.3913    0.0000 C   0  0  0  0  0  0  0  0  0  0  0  0
   -2.1893   -1.2198    0.0000 C   0  0  0  0  0  0  0  0  0  0  0  0
   -2.4443   -0.4352    0.0000 C   0  0  0  0  0  0  0  0  0  0  0  0
   -3.2512   -0.2637    0.0000 C   0  0  0  0  0  0  0  0  0  0  0  0
   -3.5062    0.5210    0.0000 C   0  0  0  0  0  0  0  0  0  0  0  0
   -2.9541    1.1341    0.0000 C   0  0  0  0  0  0  0  0  0  0  0  0
   -3.2091    1.9187    0.0000 N   0  0  0  0  0  0  0  0  0  0  0  0
   -2.1472    0.9625    0.0000 C   0  0  0  0  0  0  0  0  0  0  0  0
   -1.8922    0.1779    0.0000 C   0  0  0  0  0  0  0  0  0  0  0  0
   -0.8303   -0.7782    0.0000 C   0  0  0  0  0  0  0  0  0  0  0  0
   -0.0234   -0.9498    0.0000 O   0  0  0  0  0  0  0  0  0  0  0  0
   -1.0853    0.0064    0.0000 N   0  0  0  0  0  0  0  0  0  0  0  0
   -0.5332    0.6195    0.0000 C   0  0  0  0  0  0  0  0  0  0  0  0
   -0.7882    1.4041    0.0000 C   0  0  0  0  0  0  0  0  0  0  0  0
   -0.2361    2.0172    0.0000 C   0  0  0  0  0  0  0  0  0  0  0  0
    0.5708    1.8457    0.0000 C   0  0  0  0  0  0  0  0  0  0  0  0
    1.1229    2.4588    0.0000 N   0  0  0  0  0  0  0  0  0  0  0  0
    0.9513    3.2657    0.0000 C   0  0  0  0  0  0  0  0  0  0  0  0
    1.6658    3.6782    0.0000 N   0  0  0  0  0  0  0  0  0  0  0  0
    2.2789    3.1262    0.0000 C   0  0  0  0  0  0  0  0  0  0  0  0
    3.0994    3.2124    0.0000 C   0  0  0  0  0  0  0  0  0  0  0  0
    3.5843    2.5450    0.0000 C   0  0  0  0  0  0  0  0  0  0  0  0
    3.2488    1.7913    0.0000 C   0  0  0  0  0  0  0  0  0  0  0  0
    2.4283    1.7051    0.0000 C   0  0  0  0  0  0  0  0  0  0  0  0
    1.9433    2.3725    0.0000 C   0  0  0  0  0  0  0  0  0  0  0  0
    0.8258    1.0610    0.0000 C   0  0  0  0  0  0  0  0  0  0  0  0
    0.2737    0.4479    0.0000 C   0  0  0  0  0  0  0  0  0  0  0  0
   -0.3428   -2.4309    0.0000 C   0  0  0  0  0  0  0  0  0  0  0  0
    0.3717   -2.0184    0.0000 C   0  0  0  0  0  0  0  0  0  0  0  0
    5.6984   -0.8839    0.0000 O   0  0  0  0  0  0  0  0  0  0  0  0
    6.4129   -0.4714    0.0000 C   0  0  0  0  0  0  0  0  0  0  0  0
    7.1274   -0.8839    0.0000 O   0  0  0  0  0  0  0  0  0  0  0  0
    6.4129    0.3536    0.0000 C   0  0  0  0  0  0  0  0  0  0  0  0
    6.4129    1.1786    0.0000 F   0  0  0  0  0  0  0  0  0  0  0  0
    7.2379    0.3536    0.0000 F   0  0  0  0  0  0  0  0  0  0  0  0
    5.5879    0.3536    0.0000 F   0  0  0  0  0  0  0  0  0  0  0  0
  1  2  2  0  0  0  0
  2  3  1  0  0  0  0
  2  4  1  0  0  0  0
  4  5  4  0  0  0  0
  5  6  4  0  0  0  0
  6  7  4  0  0  0  0
  7  8  4  0  0  0  0
  8  9  4  0  0  0  0
  9 10  4  0  0  0  0
 10 11  1  0  0  0  0
 11 12  1  0  0  0  0
 12 13  1  0  0  0  0
 13 14  4  0  0  0  0
 14 15  4  0  0  0  0
 15 16  4  0  0  0  0
 16 17  1  0  0  0  0
 16 18  4  0  0  0  0
 18 19  4  0  0  0  0
 13 19  4  0  0  0  0
 11 20  1  0  0  0  0
 20 21  2  0  0  0  0
 20 22  1  0  0  0  0
 22 23  1  0  0  0  0
 23 24  4  0  0  0  0
 24 25  4  0  0  0  0
 25 26  4  0  0  0  0
 26 27  1  0  0  0  0
 27 28  4  0  0  0  0
 28 29  4  0  0  0  0
 29 30  4  0  0  0  0
 30 31  4  0  0  0  0
 31 32  4  0  0  0  0
 32 33  4  0  0  0  0
 33 34  4  0  0  0  0
 34 35  4  0  0  0  0
 30 35  4  0  0  0  0
 27 35  4  0  0  0  0
 26 36  4  0  0  0  0
 36 37  4  0  0  0  0
 23 37  4  0  0  0  0
 10 38  4  0  0  0  0
  7 38  4  0  0  0  0
 38 39  4  0  0  0  0
  4 39  4  0  0  0  0
 40 41  2  0  0  0  0
 41 42  1  0  0  0  0
 41 43  1  0  0  0  0
 43 44  1  0  0  0  0
 43 45  1  0  0  0  0
 43 46  1  0  0  0  0
M  END
>  <CdId>
358341

>  <Mol Weight>
644.666

>  <Formula>
C33H27F3N6O3S

>  <cmpd_chemblid>
CHEMBL360550

>  <std_type>
Ki

>  <std_value>
74.0

>  <std_unit>
nM

>  <target_id>
CHEMBL2016

>  <target_name>
Coagulation factor IX

>  <organism>
Homo sapiens

>  <target_type>
SINGLE PROTEIN

$$$$

  Mrv0541 08052111042D          

 32 35  0  0  0  0            999 V2000
   -5.3649   -1.3480    0.0000 N   0  0  0  0  0  0  0  0  0  0  0  0
   -4.9524   -2.0625    0.0000 C   0  0  0  0  0  0  0  0  0  0  0  0
   -5.3649   -2.7770    0.0000 N   0  0  0  0  0  0  0  0  0  0  0  0
   -4.1274   -2.0625    0.0000 C   0  0  0  0  0  0  0  0  0  0  0  0
   -3.6425   -1.3951    0.0000 C   0  0  0  0  0  0  0  0  0  0  0  0
   -2.8579   -1.6500    0.0000 C   0  0  0  0  0  0  0  0  0  0  0  0
   -2.1434   -1.2375    0.0000 C   0  0  0  0  0  0  0  0  0  0  0  0
   -2.1434   -0.4125    0.0000 O   0  0  0  0  0  0  0  0  0  0  0  0
   -1.4289   -0.0000    0.0000 C   0  0  0  0  0  0  0  0  0  0  0  0
   -0.7145   -0.4125    0.0000 C   0  0  0  0  0  0  0  0  0  0  0  0
    0.0000   -0.0000    0.0000 O   0  0  0  0  0  0  0  0  0  0  0  0
    0.7145   -0.4125    0.0000 C   0  0  0  0  0  0  0  0  0  0  0  0
    0.7145   -1.2375    0.0000 O   0  0  0  0  0  0  0  0  0  0  0  0
    1.4289   -0.0000    0.0000 N   0  0  0  0  0  0  0  0  0  0  0  0
    2.1434   -0.4125    0.0000 C   0  0  0  0  0  0  0  0  0  0  0  0
    2.8579   -0.0000    0.0000 C   0  0  0  0  0  0  0  0  0  0  0  0
    3.5724   -0.4125    0.0000 C   0  0  0  0  0  0  0  0  0  0  0  0
    3.5724   -1.2375    0.0000 C   0  0  0  0  0  0  0  0  0  0  0  0
    2.8579   -1.6500    0.0000 C   0  0  0  0  0  0  0  0  0  0  0  0
    2.1434   -1.2375    0.0000 C   0  0  0  0  0  0  0  0  0  0  0  0
    1.4289   -1.6500    0.0000 F   0  0  0  0  0  0  0  0  0  0  0  0
   -1.4289    0.8250    0.0000 C   0  0  0  0  0  0  0  0  0  0  0  0
   -2.1434    1.2375    0.0000 C   0  0  0  0  0  0  0  0  0  0  0  0
   -2.1434    2.0625    0.0000 C   0  0  0  0  0  0  0  0  0  0  0  0
   -1.4289    2.4750    0.0000 C   0  0  0  0  0  0  0  0  0  0  0  0
   -0.7145    2.0625    0.0000 C   0  0  0  0  0  0  0  0  0  0  0  0
   -0.7145    1.2375    0.0000 C   0  0  0  0  0  0  0  0  0  0  0  0
   -1.4289   -1.6500    0.0000 C   0  0  0  0  0  0  0  0  0  0  0  0
   -1.4289   -2.4750    0.0000 C   0  0  0  0  0  0  0  0  0  0  0  0
   -2.1434   -2.8875    0.0000 C   0  0  0  0  0  0  0  0  0  0  0  0
   -2.8579   -2.4750    0.0000 C   0  0  0  0  0  0  0  0  0  0  0  0
   -3.6425   -2.7299    0.0000 S   0  0  0  0  0  0  0  0  0  0  0  0
  1  2  2  0  0  0  0
  2  3  1  0  0  0  0
  2  4  1  0  0  0  0
  4  5  4  0  0  0  0
  5  6  4  0  0  0  0
  6  7  4  0  0  0  0
  7  8  1  0  0  0  0
  8  9  1  0  0  0  0
  9 10  1  0  0  0  0
 10 11  1  0  0  0  0
 11 12  1  0  0  0  0
 12 13  2  0  0  0  0
 12 14  1  0  0  0  0
 14 15  1  0  0  0  0
 15 16  4  0  0  0  0
 16 17  4  0  0  0  0
 17 18  4  0  0  0  0
 18 19  4  0  0  0  0
 19 20  4  0  0  0  0
 15 20  4  0  0  0  0
 20 21  1  0  0  0  0
  9 22  1  0  0  0  0
 22 23  4  0  0  0  0
 23 24  4  0  0  0  0
 24 25  4  0  0  0  0
 25 26  4  0  0  0  0
 26 27  4  0  0  0  0
 22 27  4  0  0  0  0
  7 28  4  0  0  0  0
 28 29  4  0  0  0  0
 29 30  4  0  0  0  0
 30 31  4  0  0  0  0
  6 31  4  0  0  0  0
 31 32  4  0  0  0  0
  4 32  4  0  0  0  0
M  END
>  <CdId>
358343

>  <Mol Weight>
449.497

>  <Formula>
C24H20FN3O3S

>  <cmpd_chemblid>
CHEMBL606183

>  <std_type>
Ki

>  <std_value>
5.0

>  <std_unit>
nM

>  <target_id>
CHEMBL2016

>  <target_name>
Coagulation factor IX

>  <organism>
Homo sapiens

>  <target_type>
SINGLE PROTEIN

$$$$

  Mrv0541 08052111042D          

 28 31  0  0  0  0            999 V2000
    4.7812    8.5354    0.0000 C   0  0  0  0  0  0  0  0  0  0  0  0
    5.4957    8.1229    0.0000 O   0  0  0  0  0  0  0  0  0  0  0  0
    5.4957    7.2979    0.0000 C   0  0  0  0  0  0  0  0  0  0  0  0
    6.2102    6.8854    0.0000 C   0  0  0  0  0  0  0  0  0  0  0  0
    6.2102    6.0604    0.0000 C   0  0  0  0  0  0  0  0  0  0  0  0
    5.4957    5.6479    0.0000 C   0  0  0  0  0  0  0  0  0  0  0  0
    5.4957    4.8229    0.0000 C   0  0  0  0  0  0  0  0  0  0  0  0
    4.7812    4.4104    0.0000 O   0  0  0  0  0  0  0  0  0  0  0  0
    4.7812    3.5854    0.0000 C   0  0  0  0  0  0  0  0  0  0  0  0
    5.4957    3.1729    0.0000 C   0  0  0  0  0  0  0  0  0  0  0  0
    5.4957    2.3479    0.0000 C   0  0  0  0  0  0  0  0  0  0  0  0
    4.7812    1.9354    0.0000 C   0  0  0  0  0  0  0  0  0  0  0  0
    4.0668    2.3479    0.0000 C   0  0  0  0  0  0  0  0  0  0  0  0
    3.3523    1.9354    0.0000 C   0  0  0  0  0  0  0  0  0  0  0  0
    3.3523    1.1104    0.0000 C   0  0  0  0  0  0  0  0  0  0  0  0
    2.6378    0.6979    0.0000 C   0  0  0  0  0  0  0  0  0  0  0  0
    1.9233    1.1104    0.0000 C   0  0  0  0  0  0  0  0  0  0  0  0
    1.1387    0.8555    0.0000 S   0  0  0  0  0  0  0  0  0  0  0  0
    0.6538    1.5229    0.0000 C   0  0  0  0  0  0  0  0  0  0  0  0
   -0.1712    1.5229    0.0000 C   0  0  0  0  0  0  0  0  0  0  0  0
   -0.5837    0.8085    0.0000 N   0  0  0  0  0  0  0  0  0  0  0  0
   -0.5837    2.2374    0.0000 N   0  0  0  0  0  0  0  0  0  0  0  0
    1.1387    2.1904    0.0000 C   0  0  0  0  0  0  0  0  0  0  0  0
    1.9233    1.9354    0.0000 C   0  0  0  0  0  0  0  0  0  0  0  0
    2.6378    2.3479    0.0000 C   0  0  0  0  0  0  0  0  0  0  0  0
    4.0668    3.1729    0.0000 C   0  0  0  0  0  0  0  0  0  0  0  0
    4.7812    6.0604    0.0000 C   0  0  0  0  0  0  0  0  0  0  0  0
    4.7812    6.8854    0.0000 C   0  0  0  0  0  0  0  0  0  0  0  0
  1  2  1  0  0  0  0
  2  3  1  0  0  0  0
  3  4  4  0  0  0  0
  4  5  4  0  0  0  0
  5  6  4  0  0  0  0
  6  7  1  0  0  0  0
  7  8  1  0  0  0  0
  8  9  1  0  0  0  0
  9 10  4  0  0  0  0
 10 11  4  0  0  0  0
 11 12  4  0  0  0  0
 12 13  4  0  0  0  0
 13 14  1  0  0  0  0
 14 15  4  0  0  0  0
 15 16  4  0  0  0  0
 16 17  4  0  0  0  0
 17 18  4  0  0  0  0
 18 19  4  0  0  0  0
 19 20  1  0  0  0  0
 20 21  2  0  0  0  0
 20 22  1  0  0  0  0
 19 23  4  0  0  0  0
 23 24  4  0  0  0  0
 17 24  4  0  0  0  0
 24 25  4  0  0  0  0
 14 25  4  0  0  0  0
 13 26  4  0  0  0  0
  9 26  4  0  0  0  0
  6 27  4  0  0  0  0
 27 28  4  0  0  0  0
  3 28  4  0  0  0  0
M  END
>  <CdId>
358344

>  <Mol Weight>
388.482

>  <Formula>
C23H20N2O2S

>  <cmpd_chemblid>
CHEMBL599628

>  <std_type>
Ki

>  <std_value>
250.0

>  <std_unit>
nM

>  <target_id>
CHEMBL2016

>  <target_name>
Coagulation factor IX

>  <organism>
Homo sapiens

>  <target_type>
SINGLE PROTEIN

$$$$

  Mrv0541 08052111042D          

 30 33  0  0  0  0            999 V2000
    2.8579   -6.6000    0.0000 C   0  0  0  0  0  0  0  0  0  0  0  0
    2.1434   -6.1875    0.0000 C   0  0  0  0  0  0  0  0  0  0  0  0
    1.4289   -6.6000    0.0000 C   0  0  0  0  0  0  0  0  0  0  0  0
    0.7145   -6.1875    0.0000 C   0  0  0  0  0  0  0  0  0  0  0  0
    0.7145   -5.3625    0.0000 C   0  0  0  0  0  0  0  0  0  0  0  0
    0.0000   -4.9500    0.0000 N   0  0  0  0  0  0  0  0  0  0  0  0
   -0.7145   -5.3625    0.0000 C   0  0  0  0  0  0  0  0  0  0  0  0
   -1.4289   -4.9500    0.0000 C   0  0  0  0  0  0  0  0  0  0  0  0
   -1.4289   -4.1250    0.0000 O   0  0  0  0  0  0  0  0  0  0  0  0
   -0.7145   -3.7125    0.0000 C   0  0  0  0  0  0  0  0  0  0  0  0
   -0.7145   -2.8875    0.0000 C   0  0  0  0  0  0  0  0  0  0  0  0
   -1.4289   -2.4750    0.0000 O   0  0  0  0  0  0  0  0  0  0  0  0
    0.0000   -2.4750    0.0000 C   0  0  0  0  0  0  0  0  0  0  0  0
    0.7145   -2.8875    0.0000 O   0  0  0  0  0  0  0  0  0  0  0  0
    0.0000   -1.6500    0.0000 N   0  0  0  0  0  0  0  0  0  0  0  0
    0.7145   -1.2375    0.0000 C   0  0  0  0  0  0  0  0  0  0  0  0
    0.7145   -0.4125    0.0000 C   0  0  0  0  0  0  0  0  0  0  0  0
    1.4289    0.0000    0.0000 C   0  0  0  0  0  0  0  0  0  0  0  0
    2.1434   -0.4125    0.0000 C   0  0  0  0  0  0  0  0  0  0  0  0
    2.8579    0.0000    0.0000 C   0  0  0  0  0  0  0  0  0  0  0  0
    2.8579    0.8250    0.0000 N   0  0  0  0  0  0  0  0  0  0  0  0
    3.5724   -0.4125    0.0000 N   0  0  0  0  0  0  0  0  0  0  0  0
    3.5724   -1.2375    0.0000 C   0  0  0  0  0  0  0  0  0  0  0  0
    2.8579   -1.6500    0.0000 C   0  0  0  0  0  0  0  0  0  0  0  0
    2.1434   -1.2375    0.0000 C   0  0  0  0  0  0  0  0  0  0  0  0
    1.4289   -1.6500    0.0000 C   0  0  0  0  0  0  0  0  0  0  0  0
    0.0000   -4.1250    0.0000 C   0  0  0  0  0  0  0  0  0  0  0  0
    0.7145   -3.7125    0.0000 O   0  0  0  0  0  0  0  0  0  0  0  0
    1.4289   -4.9500    0.0000 C   0  0  0  0  0  0  0  0  0  0  0  0
    2.1434   -5.3625    0.0000 C   0  0  0  0  0  0  0  0  0  0  0  0
  1  2  1  0  0  0  0
  2  3  4  0  0  0  0
  3  4  4  0  0  0  0
  4  5  4  0  0  0  0
  5  6  1  0  0  0  0
  6  7  1  0  0  0  0
  7  8  1  0  0  0  0
  8  9  1  0  0  0  0
  9 10  1  0  0  0  0
 10 11  1  0  0  0  0
 11 12  1  0  0  0  0
 11 13  1  0  0  0  0
 13 14  2  0  0  0  0
 13 15  1  0  0  0  0
 15 16  1  0  0  0  0
 16 17  4  0  0  0  0
 17 18  4  0  0  0  0
 18 19  4  0  0  0  0
 19 20  4  0  0  0  0
 20 21  1  0  0  0  0
 20 22  4  0  0  0  0
 22 23  4  0  0  0  0
 23 24  4  0  0  0  0
 24 25  4  0  0  0  0
 19 25  4  0  0  0  0
 25 26  4  0  0  0  0
 16 26  4  0  0  0  0
 10 27  1  0  0  0  0
  6 27  1  0  0  0  0
 27 28  2  0  0  0  0
  5 29  4  0  0  0  0
 29 30  4  0  0  0  0
  2 30  4  0  0  0  0
M  END
>  <CdId>
358347

>  <Mol Weight>
406.4345

>  <Formula>
C22H22N4O4

>  <cmpd_chemblid>
CHEMBL3658388

>  <std_type>
Ki

>  <std_value>
20.0

>  <std_unit>
nM

>  <target_id>
CHEMBL2016

>  <target_name>
Coagulation factor IX

>  <organism>
Homo sapiens

>  <target_type>
SINGLE PROTEIN

$$$$

  Mrv0541 08052111042D          

 37 41  0  0  1  0            999 V2000
   -0.1712   -0.6979    0.0000 C   0  0  0  0  0  0  0  0  0  0  0  0
    0.6538   -0.6979    0.0000 C   0  0  0  0  0  0  0  0  0  0  0  0
    1.1387   -0.0305    0.0000 N   0  0  0  0  0  0  0  0  0  0  0  0
    1.9233   -0.2854    0.0000 C   0  0  0  0  0  0  0  0  0  0  0  0
    2.6378    0.1271    0.0000 C   0  0  0  0  0  0  0  0  0  0  0  0
    3.3523   -0.2854    0.0000 C   0  0  0  0  0  0  0  0  0  0  0  0
    4.0668    0.1271    0.0000 C   0  0  1  0  0  0  0  0  0  0  0  0
    4.0668    0.9521    0.0000 C   0  0  0  0  0  0  0  0  0  0  0  0
    4.7812    1.3646    0.0000 N   0  0  0  0  0  0  0  0  0  0  0  0
    4.7812    2.1896    0.0000 C   0  0  0  0  0  0  0  0  0  0  0  0
    4.0668    2.6021    0.0000 O   0  0  0  0  0  0  0  0  0  0  0  0
    5.4957    2.6021    0.0000 C   0  0  0  0  0  0  0  0  0  0  0  0
    5.4957    3.4271    0.0000 C   0  0  0  0  0  0  0  0  0  0  0  0
    4.7812    3.8396    0.0000 Cl  0  0  0  0  0  0  0  0  0  0  0  0
    6.2102    3.8396    0.0000 C   0  0  0  0  0  0  0  0  0  0  0  0
    6.9246    3.4271    0.0000 C   0  0  0  0  0  0  0  0  0  0  0  0
    7.6391    3.8396    0.0000 N   0  0  0  0  0  0  0  0  0  0  0  0
    7.7253    4.6600    0.0000 C   0  0  0  0  0  0  0  0  0  0  0  0
    8.5323    4.8316    0.0000 N   0  0  0  0  0  0  0  0  0  0  0  0
    8.9448    4.1171    0.0000 C   0  0  0  0  0  0  0  0  0  0  0  0
    9.7653    4.0309    0.0000 C   0  0  0  0  0  0  0  0  0  0  0  0
   10.2502    4.6983    0.0000 O   0  0  0  0  0  0  0  0  0  0  0  0
    8.3928    3.5040    0.0000 N   0  0  0  0  0  0  0  0  0  0  0  0
    6.9246    2.6021    0.0000 C   0  0  0  0  0  0  0  0  0  0  0  0
    6.2102    2.1896    0.0000 C   0  0  0  0  0  0  0  0  0  0  0  0
    6.2102    1.3646    0.0000 Cl  0  0  0  0  0  0  0  0  0  0  0  0
    4.7812   -0.2854    0.0000 C   0  0  0  0  0  0  0  0  0  0  0  0
    5.4957    0.1271    0.0000 C   0  0  0  0  0  0  0  0  0  0  0  0
    6.2102   -0.2854    0.0000 C   0  0  0  0  0  0  0  0  0  0  0  0
    6.2102   -1.1104    0.0000 C   0  0  0  0  0  0  0  0  0  0  0  0
    5.4957   -1.5229    0.0000 C   0  0  0  0  0  0  0  0  0  0  0  0
    5.4957   -2.3479    0.0000 F   0  0  0  0  0  0  0  0  0  0  0  0
    4.7812   -1.1104    0.0000 C   0  0  0  0  0  0  0  0  0  0  0  0
    3.3523   -1.1104    0.0000 C   0  0  0  0  0  0  0  0  0  0  0  0
    2.6378   -1.5229    0.0000 C   0  0  0  0  0  0  0  0  0  0  0  0
    1.9233   -1.1104    0.0000 C   0  0  0  0  0  0  0  0  0  0  0  0
    1.1387   -1.3654    0.0000 N   0  0  0  0  0  0  0  0  0  0  0  0
  1  2  1  0  0  0  0
  2  3  4  0  0  0  0
  3  4  4  0  0  0  0
  4  5  4  0  0  0  0
  5  6  4  0  0  0  0
  6  7  1  0  0  0  0
  7  8  1  0  0  0  0
  8  9  1  0  0  0  0
  9 10  1  0  0  0  0
 10 11  2  0  0  0  0
 10 12  1  0  0  0  0
 12 13  4  0  0  0  0
 13 14  1  0  0  0  0
 13 15  4  0  0  0  0
 15 16  4  0  0  0  0
 16 17  1  0  0  0  0
 17 18  4  0  0  0  0
 18 19  4  0  0  0  0
 19 20  4  0  0  0  0
 20 21  1  0  0  0  0
 21 22  1  0  0  0  0
 20 23  4  0  0  0  0
 17 23  4  0  0  0  0
 16 24  4  0  0  0  0
 24 25  4  0  0  0  0
 12 25  4  0  0  0  0
 25 26  1  0  0  0  0
  7 27  1  1  0  0  0
 27 28  4  0  0  0  0
 28 29  4  0  0  0  0
 29 30  4  0  0  0  0
 30 31  4  0  0  0  0
 31 32  1  0  0  0  0
 31 33  4  0  0  0  0
 27 33  4  0  0  0  0
  6 34  4  0  0  0  0
 34 35  4  0  0  0  0
 35 36  4  0  0  0  0
  4 36  4  0  0  0  0
 36 37  4  0  0  0  0
  2 37  4  0  0  0  0
M  STY  1   1 DAT
M  SAL   1  1  37
M  SDT   1 MRV_IMPLICIT_H                                        
M  SDD   1     0.0000    0.0000    DR    ALL  0       0  
M  SED   1 IMPL_H1
M  END
>  <CdId>
358349

>  <Mol Weight>
539.388

>  <Formula>
C26H21Cl2FN6O2

>  <cmpd_chemblid>
CHEMBL3774998

>  <std_type>
Ki

>  <std_value>
5.5

>  <std_unit>
nM

>  <target_id>
CHEMBL2016

>  <target_name>
Coagulation factor IX

>  <organism>
Homo sapiens

>  <target_type>
SINGLE PROTEIN

$$$$

  Mrv0541 08052111042D          

 39 44  0  0  1  0            999 V2000
   10.2293    2.9548    0.0000 N   0  0  0  0  0  0  0  0  0  0  0  0
    9.5148    3.3673    0.0000 C   0  0  0  0  0  0  0  0  0  0  0  0
    9.5148    4.1923    0.0000 N   0  0  0  0  0  0  0  0  0  0  0  0
    8.8003    2.9548    0.0000 C   0  0  0  0  0  0  0  0  0  0  0  0
    8.8003    2.1298    0.0000 C   0  0  0  0  0  0  0  0  0  0  0  0
    8.0859    1.7173    0.0000 C   0  0  0  0  0  0  0  0  0  0  0  0
    7.3714    2.1298    0.0000 C   0  0  0  0  0  0  0  0  0  0  0  0
    6.5868    1.8748    0.0000 N   0  0  0  0  0  0  0  0  0  0  0  0
    6.1019    2.5423    0.0000 C   0  0  0  0  0  0  0  0  0  0  0  0
    6.5868    3.2097    0.0000 C   0  0  0  0  0  0  0  0  0  0  0  0
    6.3318    3.9943    0.0000 C   0  0  1  0  0  0  0  0  0  0  0  0
    5.5249    4.1659    0.0000 C   0  0  0  0  0  0  0  0  0  0  0  0
    5.2699    4.9505    0.0000 C   0  0  0  0  0  0  0  0  0  0  0  0
    4.4630    5.1220    0.0000 C   0  0  0  0  0  0  0  0  0  0  0  0
    4.2080    5.9066    0.0000 C   0  0  0  0  0  0  0  0  0  0  0  0
    4.7600    6.5197    0.0000 C   0  0  0  0  0  0  0  0  0  0  0  0
    5.5670    6.3482    0.0000 C   0  0  0  0  0  0  0  0  0  0  0  0
    5.8220    5.5636    0.0000 C   0  0  0  0  0  0  0  0  0  0  0  0
    6.8839    4.6074    0.0000 C   0  0  0  0  0  0  0  0  0  0  0  0
    7.6908    4.4359    0.0000 O   0  0  0  0  0  0  0  0  0  0  0  0
    6.6289    5.3921    0.0000 N   0  0  0  0  0  0  0  0  0  0  0  0
    7.1810    6.0052    0.0000 C   0  0  0  0  0  0  0  0  0  0  0  0
    6.9260    6.7898    0.0000 C   0  0  0  0  0  0  0  0  0  0  0  0
    7.4781    7.4029    0.0000 C   0  0  0  0  0  0  0  0  0  0  0  0
    8.2850    7.2313    0.0000 C   0  0  0  0  0  0  0  0  0  0  0  0
    8.8371    7.8444    0.0000 N   0  0  0  0  0  0  0  0  0  0  0  0
    8.6655    8.6514    0.0000 C   0  0  0  0  0  0  0  0  0  0  0  0
    9.3800    9.0639    0.0000 N   0  0  0  0  0  0  0  0  0  0  0  0
    9.9931    8.5119    0.0000 C   0  0  0  0  0  0  0  0  0  0  0  0
   10.8136    8.5981    0.0000 C   0  0  0  0  0  0  0  0  0  0  0  0
   11.2985    7.9307    0.0000 C   0  0  0  0  0  0  0  0  0  0  0  0
   10.9629    7.1770    0.0000 C   0  0  0  0  0  0  0  0  0  0  0  0
   10.1425    7.0908    0.0000 C   0  0  0  0  0  0  0  0  0  0  0  0
    9.6575    7.7582    0.0000 C   0  0  0  0  0  0  0  0  0  0  0  0
    8.5400    6.4467    0.0000 C   0  0  0  0  0  0  0  0  0  0  0  0
    7.9879    5.8336    0.0000 C   0  0  0  0  0  0  0  0  0  0  0  0
    8.2429    5.0490    0.0000 F   0  0  0  0  0  0  0  0  0  0  0  0
    7.3714    2.9548    0.0000 C   0  0  0  0  0  0  0  0  0  0  0  0
    8.0859    3.3673    0.0000 C   0  0  0  0  0  0  0  0  0  0  0  0
  1  2  2  0  0  0  0
  2  3  1  0  0  0  0
  2  4  1  0  0  0  0
  4  5  4  0  0  0  0
  5  6  4  0  0  0  0
  6  7  4  0  0  0  0
  7  8  4  0  0  0  0
  8  9  4  0  0  0  0
  9 10  4  0  0  0  0
 10 11  1  0  0  0  0
 11 12  1  0  0  0  0
 12 13  1  0  0  0  0
 13 14  4  0  0  0  0
 14 15  4  0  0  0  0
 15 16  4  0  0  0  0
 16 17  4  0  0  0  0
 17 18  4  0  0  0  0
 13 18  4  0  0  0  0
 11 19  1  1  0  0  0
 19 20  2  0  0  0  0
 19 21  1  0  0  0  0
 21 22  1  0  0  0  0
 22 23  4  0  0  0  0
 23 24  4  0  0  0  0
 24 25  4  0  0  0  0
 25 26  1  0  0  0  0
 26 27  4  0  0  0  0
 27 28  4  0  0  0  0
 28 29  4  0  0  0  0
 29 30  4  0  0  0  0
 30 31  4  0  0  0  0
 31 32  4  0  0  0  0
 32 33  4  0  0  0  0
 33 34  4  0  0  0  0
 29 34  4  0  0  0  0
 26 34  4  0  0  0  0
 25 35  4  0  0  0  0
 35 36  4  0  0  0  0
 22 36  4  0  0  0  0
 36 37  1  0  0  0  0
 10 38  4  0  0  0  0
  7 38  4  0  0  0  0
 38 39  4  0  0  0  0
  4 39  4  0  0  0  0
M  STY  1   1 DAT
M  SAL   1  1   8
M  SDT   1 MRV_IMPLICIT_H                                        
M  SDD   1     0.0000    0.0000    DR    ALL  0       0  
M  SED   1 IMPL_H1
M  END
>  <CdId>
358350

>  <Mol Weight>
516.5682

>  <Formula>
C31H25FN6O

>  <cmpd_chemblid>
CHEMBL3350245

>  <std_type>
Ki

>  <std_value>
19.0

>  <std_unit>
nM

>  <target_id>
CHEMBL2016

>  <target_name>
Coagulation factor IX

>  <organism>
Homo sapiens

>  <target_type>
SINGLE PROTEIN

$$$$

  Mrv0541 08052111042D          

 47 50  0  0  0  0            999 V2000
    2.6257   -2.8917    0.0000 N   0  0  0  0  0  0  0  0  0  0  0  0
    1.9112   -2.4792    0.0000 C   0  0  0  0  0  0  0  0  0  0  0  0
    1.9112   -1.6542    0.0000 N   0  0  0  0  0  0  0  0  0  0  0  0
    1.1968   -2.8917    0.0000 C   0  0  0  0  0  0  0  0  0  0  0  0
    1.1968   -3.7167    0.0000 C   0  0  0  0  0  0  0  0  0  0  0  0
    0.4823   -4.1292    0.0000 C   0  0  0  0  0  0  0  0  0  0  0  0
   -0.2322   -3.7167    0.0000 C   0  0  0  0  0  0  0  0  0  0  0  0
   -1.0168   -3.9716    0.0000 S   0  0  0  0  0  0  0  0  0  0  0  0
   -1.5017   -3.3042    0.0000 C   0  0  0  0  0  0  0  0  0  0  0  0
   -1.0168   -2.6367    0.0000 C   0  0  0  0  0  0  0  0  0  0  0  0
   -1.2717   -1.8521    0.0000 C   0  0  0  0  0  0  0  0  0  0  0  0
   -2.0787   -1.6806    0.0000 C   0  0  0  0  0  0  0  0  0  0  0  0
   -2.3336   -0.8960    0.0000 C   0  0  0  0  0  0  0  0  0  0  0  0
   -3.1406   -0.7244    0.0000 C   0  0  0  0  0  0  0  0  0  0  0  0
   -3.3956    0.0602    0.0000 C   0  0  0  0  0  0  0  0  0  0  0  0
   -2.8435    0.6733    0.0000 C   0  0  0  0  0  0  0  0  0  0  0  0
   -2.0365    0.5018    0.0000 C   0  0  0  0  0  0  0  0  0  0  0  0
   -1.7816   -0.2829    0.0000 C   0  0  0  0  0  0  0  0  0  0  0  0
   -0.7197   -1.2390    0.0000 C   0  0  0  0  0  0  0  0  0  0  0  0
    0.0873   -1.4105    0.0000 O   0  0  0  0  0  0  0  0  0  0  0  0
   -0.9746   -0.4544    0.0000 N   0  0  0  0  0  0  0  0  0  0  0  0
   -0.4226    0.1587    0.0000 C   0  0  0  0  0  0  0  0  0  0  0  0
   -0.6775    0.9433    0.0000 C   0  0  0  0  0  0  0  0  0  0  0  0
   -0.1255    1.5564    0.0000 C   0  0  0  0  0  0  0  0  0  0  0  0
    0.6815    1.3849    0.0000 C   0  0  0  0  0  0  0  0  0  0  0  0
    1.2335    1.9980    0.0000 S   0  0  0  0  0  0  0  0  0  0  0  0
    1.8466    1.4459    0.0000 O   0  0  0  0  0  0  0  0  0  0  0  0
    0.6204    2.5500    0.0000 O   0  0  0  0  0  0  0  0  0  0  0  0
    1.7855    2.6111    0.0000 N   0  0  0  0  0  0  0  0  0  0  0  0
    1.5306    3.3957    0.0000 C   0  0  0  0  0  0  0  0  0  0  0  0
    0.7236    3.5672    0.0000 C   0  0  0  0  0  0  0  0  0  0  0  0
    0.4687    4.3518    0.0000 C   0  0  0  0  0  0  0  0  0  0  0  0
    1.0207    4.9649    0.0000 C   0  0  0  0  0  0  0  0  0  0  0  0
    0.7658    5.7496    0.0000 Cl  0  0  0  0  0  0  0  0  0  0  0  0
    1.8277    4.7934    0.0000 N   0  0  0  0  0  0  0  0  0  0  0  0
    2.0826    4.0088    0.0000 N   0  0  0  0  0  0  0  0  0  0  0  0
    0.9364    0.6003    0.0000 C   0  0  0  0  0  0  0  0  0  0  0  0
    0.3844   -0.0128    0.0000 C   0  0  0  0  0  0  0  0  0  0  0  0
   -0.2322   -2.8917    0.0000 C   0  0  0  0  0  0  0  0  0  0  0  0
    0.4823   -2.4792    0.0000 C   0  0  0  0  0  0  0  0  0  0  0  0
    4.7398   -0.8839    0.0000 O   0  0  0  0  0  0  0  0  0  0  0  0
    5.4543   -0.4714    0.0000 C   0  0  0  0  0  0  0  0  0  0  0  0
    6.1688   -0.8839    0.0000 O   0  0  0  0  0  0  0  0  0  0  0  0
    5.4543    0.3536    0.0000 C   0  0  0  0  0  0  0  0  0  0  0  0
    5.4543    1.1786    0.0000 F   0  0  0  0  0  0  0  0  0  0  0  0
    6.2793    0.3536    0.0000 F   0  0  0  0  0  0  0  0  0  0  0  0
    4.6293    0.3536    0.0000 F   0  0  0  0  0  0  0  0  0  0  0  0
  1  2  2  0  0  0  0
  2  3  1  0  0  0  0
  2  4  1  0  0  0  0
  4  5  4  0  0  0  0
  5  6  4  0  0  0  0
  6  7  4  0  0  0  0
  7  8  4  0  0  0  0
  8  9  4  0  0  0  0
  9 10  4  0  0  0  0
 10 11  1  0  0  0  0
 11 12  1  0  0  0  0
 12 13  1  0  0  0  0
 13 14  4  0  0  0  0
 14 15  4  0  0  0  0
 15 16  4  0  0  0  0
 16 17  4  0  0  0  0
 17 18  4  0  0  0  0
 13 18  4  0  0  0  0
 11 19  1  0  0  0  0
 19 20  2  0  0  0  0
 19 21  1  0  0  0  0
 21 22  1  0  0  0  0
 22 23  4  0  0  0  0
 23 24  4  0  0  0  0
 24 25  4  0  0  0  0
 25 26  1  0  0  0  0
 26 27  2  0  0  0  0
 26 28  2  0  0  0  0
 26 29  1  0  0  0  0
 29 30  1  0  0  0  0
 30 31  4  0  0  0  0
 31 32  4  0  0  0  0
 32 33  4  0  0  0  0
 33 34  1  0  0  0  0
 33 35  4  0  0  0  0
 35 36  4  0  0  0  0
 30 36  4  0  0  0  0
 25 37  4  0  0  0  0
 37 38  4  0  0  0  0
 22 38  4  0  0  0  0
 10 39  4  0  0  0  0
  7 39  4  0  0  0  0
 39 40  4  0  0  0  0
  4 40  4  0  0  0  0
 41 42  2  0  0  0  0
 42 43  1  0  0  0  0
 42 44  1  0  0  0  0
 44 45  1  0  0  0  0
 44 46  1  0  0  0  0
 44 47  1  0  0  0  0
M  END
>  <CdId>
358351

>  <Mol Weight>
705.127

>  <Formula>
C30H24ClF3N6O5S2

>  <cmpd_chemblid>
CHEMBL363110

>  <std_type>
Ki

>  <std_value>
930.0

>  <std_unit>
nM

>  <target_id>
CHEMBL2016

>  <target_name>
Coagulation factor IX

>  <organism>
Homo sapiens

>  <target_type>
SINGLE PROTEIN

$$$$

  Mrv0541 08052111042D          

 40 44  0  0  1  0            999 V2000
    3.9849    3.9849    0.0000 C   0  0  0  0  0  0  0  0  0  0  0  0
    4.3974    3.2704    0.0000 C   0  0  2  0  0  0  0  0  0  0  0  0
    5.2224    3.2704    0.0000 C   0  0  0  0  0  0  0  0  0  0  0  0
    5.6349    2.5559    0.0000 C   0  0  0  0  0  0  0  0  0  0  0  0
    6.4599    2.5559    0.0000 C   0  0  0  0  0  0  0  0  0  0  0  0
    6.8724    1.8414    0.0000 C   0  0  2  0  0  0  0  0  0  0  0  0
    7.6974    1.8414    0.0000 N   0  0  0  0  0  0  0  0  0  0  0  0
    8.1099    2.5559    0.0000 C   0  0  0  0  0  0  0  0  0  0  0  0
    8.9349    2.5559    0.0000 C   0  0  0  0  0  0  0  0  0  0  0  0
    9.3474    1.8414    0.0000 C   0  0  0  0  0  0  0  0  0  0  0  0
   10.1724    1.8414    0.0000 C   0  0  0  0  0  0  0  0  0  0  0  0
   10.5849    2.5559    0.0000 C   0  0  0  0  0  0  0  0  0  0  0  0
   10.1724    3.2704    0.0000 C   0  0  0  0  0  0  0  0  0  0  0  0
    9.7599    3.9849    0.0000 N   0  0  0  0  0  0  0  0  0  0  0  0
   11.4099    2.5559    0.0000 C   0  0  0  0  0  0  0  0  0  0  0  0
   11.8224    1.8414    0.0000 C   0  0  0  0  0  0  0  0  0  0  0  0
   11.4099    1.1270    0.0000 C   0  0  0  0  0  0  0  0  0  0  0  0
   11.8224    0.4125    0.0000 Cl  0  0  0  0  0  0  0  0  0  0  0  0
   10.5849    1.1270    0.0000 C   0  0  0  0  0  0  0  0  0  0  0  0
   10.1724    0.4125    0.0000 F   0  0  0  0  0  0  0  0  0  0  0  0
    8.9349    1.1270    0.0000 C   0  0  0  0  0  0  0  0  0  0  0  0
    8.1099    1.1270    0.0000 C   0  0  0  0  0  0  0  0  0  0  0  0
    7.6974    0.4125    0.0000 O   0  0  0  0  0  0  0  0  0  0  0  0
    6.4599    1.1270    0.0000 C   0  0  0  0  0  0  0  0  0  0  0  0
    5.6349    1.1270    0.0000 C   0  0  0  0  0  0  0  0  0  0  0  0
    5.2224    0.4125    0.0000 C   0  0  0  0  0  0  0  0  0  0  0  0
    5.6349   -0.3020    0.0000 C   0  0  0  0  0  0  0  0  0  0  0  0
    6.4599   -0.3020    0.0000 C   0  0  0  0  0  0  0  0  0  0  0  0
    6.8724    0.4125    0.0000 N   0  0  0  0  0  0  0  0  0  0  0  0
    4.3974    0.4125    0.0000 C   0  0  0  0  0  0  0  0  0  0  0  0
    3.9849    1.1270    0.0000 C   0  0  0  0  0  0  0  0  0  0  0  0
    3.1599    1.1270    0.0000 C   0  0  0  0  0  0  0  0  0  0  0  0
    2.7474    0.4125    0.0000 C   0  0  0  0  0  0  0  0  0  0  0  0
    3.1599   -0.3020    0.0000 C   0  0  0  0  0  0  0  0  0  0  0  0
    2.7474   -1.0164    0.0000 F   0  0  0  0  0  0  0  0  0  0  0  0
    3.9849   -0.3020    0.0000 C   0  0  0  0  0  0  0  0  0  0  0  0
    4.3974   -1.0164    0.0000 F   0  0  0  0  0  0  0  0  0  0  0  0
    4.3974    1.8414    0.0000 N   0  0  0  0  0  0  0  0  0  0  0  0
    3.9849    2.5559    0.0000 C   0  0  0  0  0  0  0  0  0  0  0  0
    3.1599    2.5559    0.0000 O   0  0  0  0  0  0  0  0  0  0  0  0
  2  1  1  6  0  0  0
  2  3  1  0  0  0  0
  3  4  1  0  0  0  0
  4  5  1  0  0  0  0
  5  6  1  0  0  0  0
  6  7  1  6  0  0  0
  7  8  1  0  0  0  0
  8  9  1  0  0  0  0
  9 10  1  0  0  0  0
 10 11  1  0  0  0  0
 11 12  4  0  0  0  0
 12 13  1  0  0  0  0
 13 14  3  0  0  0  0
 12 15  4  0  0  0  0
 15 16  4  0  0  0  0
 16 17  4  0  0  0  0
 17 18  1  0  0  0  0
 17 19  4  0  0  0  0
 11 19  4  0  0  0  0
 19 20  1  0  0  0  0
 10 21  2  0  0  0  0
 21 22  1  0  0  0  0
  7 22  1  0  0  0  0
 22 23  2  0  0  0  0
  6 24  1  0  0  0  0
 24 25  4  0  0  0  0
 25 26  4  0  0  0  0
 26 27  4  0  0  0  0
 27 28  4  0  0  0  0
 28 29  4  0  0  0  0
 24 29  4  0  0  0  0
 26 30  1  0  0  0  0
 30 31  4  0  0  0  0
 31 32  4  0  0  0  0
 32 33  4  0  0  0  0
 33 34  4  0  0  0  0
 34 35  1  0  0  0  0
 34 36  4  0  0  0  0
 30 36  4  0  0  0  0
 36 37  1  0  0  0  0
 31 38  1  0  0  0  0
 38 39  1  0  0  0  0
  2 39  1  0  0  0  0
 39 40  2  0  0  0  0
M  END
>  <CdId>
358353

>  <Mol Weight>
564.985

>  <Formula>
C30H24ClF3N4O2

>  <cmpd_chemblid>
CHEMBL4112300

>  <std_type>
Ki

>  <std_value>
1.0

>  <std_unit>
nM

>  <target_id>
CHEMBL2016

>  <target_name>
Coagulation factor IX

>  <organism>
Homo sapiens

>  <target_type>
SINGLE PROTEIN

$$$$

  Mrv0541 08052111042D          

 38 43  0  0  0  0            999 V2000
    4.2010   -5.1401    0.0000 N   0  0  0  0  0  0  0  0  0  0  0  0
    3.3760   -5.1401    0.0000 C   0  0  0  0  0  0  0  0  0  0  0  0
    2.9635   -4.4256    0.0000 N   0  0  0  0  0  0  0  0  0  0  0  0
    2.9635   -5.8546    0.0000 C   0  0  0  0  0  0  0  0  0  0  0  0
    3.3760   -6.5690    0.0000 C   0  0  0  0  0  0  0  0  0  0  0  0
    2.9635   -7.2835    0.0000 C   0  0  0  0  0  0  0  0  0  0  0  0
    2.1385   -7.2835    0.0000 C   0  0  0  0  0  0  0  0  0  0  0  0
    1.7260   -6.5690    0.0000 C   0  0  0  0  0  0  0  0  0  0  0  0
    0.9010   -6.5690    0.0000 N   0  0  0  0  0  0  0  0  0  0  0  0
    0.4161   -7.2365    0.0000 N   0  0  0  0  0  0  0  0  0  0  0  0
   -0.3686   -6.9815    0.0000 C   0  0  0  0  0  0  0  0  0  0  0  0
   -1.0360   -7.4664    0.0000 C   0  0  0  0  0  0  0  0  0  0  0  0
   -1.7897   -7.1309    0.0000 N   0  0  0  0  0  0  0  0  0  0  0  0
   -2.5041   -7.5434    0.0000 C   0  0  0  0  0  0  0  0  0  0  0  0
   -3.1172   -6.9914    0.0000 N   0  0  0  0  0  0  0  0  0  0  0  0
   -2.7817   -6.2377    0.0000 N   0  0  0  0  0  0  0  0  0  0  0  0
   -1.9612   -6.3239    0.0000 N   0  0  0  0  0  0  0  0  0  0  0  0
   -0.3686   -6.1565    0.0000 C   0  0  0  0  0  0  0  0  0  0  0  0
    0.4161   -5.9016    0.0000 C   0  0  0  0  0  0  0  0  0  0  0  0
    0.6710   -5.1170    0.0000 C   0  0  0  0  0  0  0  0  0  0  0  0
    1.4780   -4.9454    0.0000 O   0  0  0  0  0  0  0  0  0  0  0  0
    0.1190   -4.5039    0.0000 N   0  0  0  0  0  0  0  0  0  0  0  0
    0.3739   -3.7192    0.0000 C   0  0  0  0  0  0  0  0  0  0  0  0
   -0.1781   -3.1062    0.0000 C   0  0  0  0  0  0  0  0  0  0  0  0
    0.0768   -2.3215    0.0000 C   0  0  0  0  0  0  0  0  0  0  0  0
    0.8838   -2.1500    0.0000 C   0  0  0  0  0  0  0  0  0  0  0  0
    1.1387   -1.3654    0.0000 N   0  0  0  0  0  0  0  0  0  0  0  0
    0.6538   -0.6979    0.0000 C   0  0  0  0  0  0  0  0  0  0  0  0
    1.1387   -0.0305    0.0000 N   0  0  0  0  0  0  0  0  0  0  0  0
    1.9233   -0.2854    0.0000 C   0  0  0  0  0  0  0  0  0  0  0  0
    2.6378    0.1271    0.0000 C   0  0  0  0  0  0  0  0  0  0  0  0
    3.3523   -0.2854    0.0000 C   0  0  0  0  0  0  0  0  0  0  0  0
    3.3523   -1.1104    0.0000 C   0  0  0  0  0  0  0  0  0  0  0  0
    2.6378   -1.5229    0.0000 C   0  0  0  0  0  0  0  0  0  0  0  0
    1.9233   -1.1104    0.0000 C   0  0  0  0  0  0  0  0  0  0  0  0
    1.4358   -2.7631    0.0000 C   0  0  0  0  0  0  0  0  0  0  0  0
    1.1809   -3.5477    0.0000 C   0  0  0  0  0  0  0  0  0  0  0  0
    2.1385   -5.8546    0.0000 C   0  0  0  0  0  0  0  0  0  0  0  0
  1  2  2  0  0  0  0
  2  3  1  0  0  0  0
  2  4  1  0  0  0  0
  4  5  4  0  0  0  0
  5  6  4  0  0  0  0
  6  7  4  0  0  0  0
  7  8  4  0  0  0  0
  8  9  1  0  0  0  0
  9 10  4  0  0  0  0
 10 11  4  0  0  0  0
 11 12  1  0  0  0  0
 12 13  1  0  0  0  0
 13 14  4  0  0  0  0
 14 15  4  0  0  0  0
 15 16  4  0  0  0  0
 16 17  4  0  0  0  0
 13 17  4  0  0  0  0
 11 18  4  0  0  0  0
 18 19  4  0  0  0  0
  9 19  4  0  0  0  0
 19 20  1  0  0  0  0
 20 21  2  0  0  0  0
 20 22  1  0  0  0  0
 22 23  1  0  0  0  0
 23 24  4  0  0  0  0
 24 25  4  0  0  0  0
 25 26  4  0  0  0  0
 26 27  1  0  0  0  0
 27 28  4  0  0  0  0
 28 29  4  0  0  0  0
 29 30  4  0  0  0  0
 30 31  4  0  0  0  0
 31 32  4  0  0  0  0
 32 33  4  0  0  0  0
 33 34  4  0  0  0  0
 34 35  4  0  0  0  0
 30 35  4  0  0  0  0
 27 35  4  0  0  0  0
 26 36  4  0  0  0  0
 36 37  4  0  0  0  0
 23 37  4  0  0  0  0
  8 38  4  0  0  0  0
  4 38  4  0  0  0  0
M  END
>  <CdId>
358356

>  <Mol Weight>
503.518

>  <Formula>
C26H21N11O

>  <cmpd_chemblid>
CHEMBL187097

>  <std_type>
Ki

>  <std_value>
11.0

>  <std_unit>
nM

>  <target_id>
CHEMBL2016

>  <target_name>
Coagulation factor IX

>  <organism>
Homo sapiens

>  <target_type>
SINGLE PROTEIN

$$$$

  Mrv0541 08052111042D          

 19 21  0  0  0  0            999 V2000
   -0.5837    0.0165    0.0000 N   0  0  0  0  0  0  0  0  0  0  0  0
   -0.1712   -0.6979    0.0000 C   0  0  0  0  0  0  0  0  0  0  0  0
   -0.5837   -1.4124    0.0000 N   0  0  0  0  0  0  0  0  0  0  0  0
    0.6538   -0.6979    0.0000 C   0  0  0  0  0  0  0  0  0  0  0  0
    1.1387   -0.0305    0.0000 C   0  0  0  0  0  0  0  0  0  0  0  0
    1.9233   -0.2854    0.0000 C   0  0  0  0  0  0  0  0  0  0  0  0
    2.6378    0.1271    0.0000 C   0  0  0  0  0  0  0  0  0  0  0  0
    3.3523   -0.2854    0.0000 C   0  0  0  0  0  0  0  0  0  0  0  0
    3.3523   -1.1104    0.0000 C   0  0  0  0  0  0  0  0  0  0  0  0
    4.0668   -1.5229    0.0000 O   0  0  0  0  0  0  0  0  0  0  0  0
    4.7812   -1.1104    0.0000 C   0  0  0  0  0  0  0  0  0  0  0  0
    5.4957   -1.5229    0.0000 C   0  0  0  0  0  0  0  0  0  0  0  0
    6.2494   -1.1874    0.0000 C   0  0  0  0  0  0  0  0  0  0  0  0
    6.8014   -1.8005    0.0000 C   0  0  0  0  0  0  0  0  0  0  0  0
    6.3889   -2.5150    0.0000 C   0  0  0  0  0  0  0  0  0  0  0  0
    5.5819   -2.3434    0.0000 S   0  0  0  0  0  0  0  0  0  0  0  0
    2.6378   -1.5229    0.0000 C   0  0  0  0  0  0  0  0  0  0  0  0
    1.9233   -1.1104    0.0000 C   0  0  0  0  0  0  0  0  0  0  0  0
    1.1387   -1.3654    0.0000 S   0  0  0  0  0  0  0  0  0  0  0  0
  1  2  2  0  0  0  0
  2  3  1  0  0  0  0
  2  4  1  0  0  0  0
  4  5  4  0  0  0  0
  5  6  4  0  0  0  0
  6  7  4  0  0  0  0
  7  8  4  0  0  0  0
  8  9  4  0  0  0  0
  9 10  1  0  0  0  0
 10 11  1  0  0  0  0
 11 12  1  0  0  0  0
 12 13  4  0  0  0  0
 13 14  4  0  0  0  0
 14 15  4  0  0  0  0
 15 16  4  0  0  0  0
 12 16  4  0  0  0  0
  9 17  4  0  0  0  0
 17 18  4  0  0  0  0
  6 18  4  0  0  0  0
 18 19  4  0  0  0  0
  4 19  4  0  0  0  0
M  END
>  <CdId>
358358

>  <Mol Weight>
288.388

>  <Formula>
C14H12N2OS2

>  <cmpd_chemblid>
CHEMBL598157

>  <std_type>
Ki

>  <std_value>
350.0

>  <std_unit>
nM

>  <target_id>
CHEMBL2016

>  <target_name>
Coagulation factor IX

>  <organism>
Homo sapiens

>  <target_type>
SINGLE PROTEIN

$$$$

  Mrv0541 08052111042D          

 42 47  0  0  1  0            999 V2000
    3.9849    3.9849    0.0000 C   0  0  0  0  0  0  0  0  0  0  0  0
    4.3974    3.2704    0.0000 C   0  0  2  0  0  0  0  0  0  0  0  0
    5.2224    3.2704    0.0000 C   0  0  0  0  0  0  0  0  0  0  0  0
    5.6349    2.5559    0.0000 C   0  0  0  0  0  0  0  0  0  0  0  0
    6.4599    2.5559    0.0000 C   0  0  0  0  0  0  0  0  0  0  0  0
    6.8724    1.8414    0.0000 C   0  0  2  0  0  0  0  0  0  0  0  0
    7.6974    1.8414    0.0000 N   0  0  0  0  0  0  0  0  0  0  0  0
    8.1099    2.5559    0.0000 C   0  0  0  0  0  0  0  0  0  0  0  0
    8.9349    2.5559    0.0000 C   0  0  0  0  0  0  0  0  0  0  0  0
    9.3474    1.8414    0.0000 C   0  0  0  0  0  0  0  0  0  0  0  0
   10.1724    1.8414    0.0000 C   0  0  0  0  0  0  0  0  0  0  0  0
   10.5849    2.5559    0.0000 C   0  0  0  0  0  0  0  0  0  0  0  0
   10.1724    3.2704    0.0000 C   0  0  0  0  0  0  0  0  0  0  0  0
    9.3474    3.2704    0.0000 C   0  0  0  0  0  0  0  0  0  0  0  0
    8.9349    3.9849    0.0000 C   0  0  0  0  0  0  0  0  0  0  0  0
    9.3474    4.6993    0.0000 C   0  0  0  0  0  0  0  0  0  0  0  0
   10.1724    4.6993    0.0000 N   0  0  0  0  0  0  0  0  0  0  0  0
   10.5849    3.9849    0.0000 C   0  0  0  0  0  0  0  0  0  0  0  0
   11.4099    2.5559    0.0000 C   0  0  0  0  0  0  0  0  0  0  0  0
   11.8224    1.8414    0.0000 C   0  0  0  0  0  0  0  0  0  0  0  0
   11.4099    1.1270    0.0000 C   0  0  0  0  0  0  0  0  0  0  0  0
   11.8224    0.4125    0.0000 Cl  0  0  0  0  0  0  0  0  0  0  0  0
   10.5849    1.1270    0.0000 C   0  0  0  0  0  0  0  0  0  0  0  0
   10.1724    0.4125    0.0000 F   0  0  0  0  0  0  0  0  0  0  0  0
    8.9349    1.1270    0.0000 C   0  0  0  0  0  0  0  0  0  0  0  0
    8.1099    1.1270    0.0000 C   0  0  0  0  0  0  0  0  0  0  0  0
    7.6974    0.4125    0.0000 O   0  0  0  0  0  0  0  0  0  0  0  0
    6.4599    1.1270    0.0000 C   0  0  0  0  0  0  0  0  0  0  0  0
    5.6349    1.1270    0.0000 C   0  0  0  0  0  0  0  0  0  0  0  0
    5.2224    0.4125    0.0000 C   0  0  0  0  0  0  0  0  0  0  0  0
    5.6349   -0.3020    0.0000 C   0  0  0  0  0  0  0  0  0  0  0  0
    6.4599   -0.3020    0.0000 C   0  0  0  0  0  0  0  0  0  0  0  0
    6.8724    0.4125    0.0000 N   0  0  0  0  0  0  0  0  0  0  0  0
    4.3974    0.4125    0.0000 C   0  0  0  0  0  0  0  0  0  0  0  0
    3.9849   -0.3020    0.0000 C   0  0  0  0  0  0  0  0  0  0  0  0
    3.1599   -0.3020    0.0000 C   0  0  0  0  0  0  0  0  0  0  0  0
    2.7474    0.4125    0.0000 C   0  0  0  0  0  0  0  0  0  0  0  0
    3.1599    1.1270    0.0000 C   0  0  0  0  0  0  0  0  0  0  0  0
    3.9849    1.1270    0.0000 C   0  0  0  0  0  0  0  0  0  0  0  0
    4.3974    1.8414    0.0000 N   0  0  0  0  0  0  0  0  0  0  0  0
    3.9849    2.5559    0.0000 C   0  0  0  0  0  0  0  0  0  0  0  0
    3.1599    2.5559    0.0000 O   0  0  0  0  0  0  0  0  0  0  0  0
  2  1  1  6  0  0  0
  2  3  1  0  0  0  0
  3  4  1  0  0  0  0
  4  5  1  0  0  0  0
  5  6  1  0  0  0  0
  6  7  1  6  0  0  0
  7  8  1  0  0  0  0
  8  9  1  0  0  0  0
  9 10  1  0  0  0  0
 10 11  1  0  0  0  0
 11 12  4  0  0  0  0
 12 13  1  0  0  0  0
 13 14  4  0  0  0  0
 14 15  4  0  0  0  0
 15 16  4  0  0  0  0
 16 17  4  0  0  0  0
 17 18  4  0  0  0  0
 13 18  4  0  0  0  0
 12 19  4  0  0  0  0
 19 20  4  0  0  0  0
 20 21  4  0  0  0  0
 21 22  1  0  0  0  0
 21 23  4  0  0  0  0
 11 23  4  0  0  0  0
 23 24  1  0  0  0  0
 10 25  2  0  0  0  0
 25 26  1  0  0  0  0
  7 26  1  0  0  0  0
 26 27  2  0  0  0  0
  6 28  1  0  0  0  0
 28 29  4  0  0  0  0
 29 30  4  0  0  0  0
 30 31  4  0  0  0  0
 31 32  4  0  0  0  0
 32 33  4  0  0  0  0
 28 33  4  0  0  0  0
 30 34  1  0  0  0  0
 34 35  4  0  0  0  0
 35 36  4  0  0  0  0
 36 37  4  0  0  0  0
 37 38  4  0  0  0  0
 38 39  4  0  0  0  0
 34 39  4  0  0  0  0
 39 40  1  0  0  0  0
 40 41  1  0  0  0  0
  2 41  1  0  0  0  0
 41 42  2  0  0  0  0
M  END
>  <CdId>
358359

>  <Mol Weight>
581.079

>  <Formula>
C34H30ClFN4O2

>  <cmpd_chemblid>
CHEMBL4112496

>  <std_type>
Ki

>  <std_value>
15.13

>  <std_unit>
nM

>  <target_id>
CHEMBL2016

>  <target_name>
Coagulation factor IX

>  <organism>
Homo sapiens

>  <target_type>
SINGLE PROTEIN

$$$$

  Mrv0541 08052111042D          

 40 44  0  0  1  0            999 V2000
   -0.7145   -0.4125    0.0000 C   0  0  0  0  0  0  0  0  0  0  0  0
    0.0000    0.0000    0.0000 O   0  0  0  0  0  0  0  0  0  0  0  0
    0.7145   -0.4125    0.0000 C   0  0  0  0  0  0  0  0  0  0  0  0
    1.4289    0.0000    0.0000 C   0  0  0  0  0  0  0  0  0  0  0  0
    2.1434   -0.4125    0.0000 C   0  0  0  0  0  0  0  0  0  0  0  0
    2.8579    0.0000    0.0000 C   0  0  0  0  0  0  0  0  0  0  0  0
    2.8579    0.8250    0.0000 N   0  0  0  0  0  0  0  0  0  0  0  0
    3.5724   -0.4125    0.0000 N   0  0  0  0  0  0  0  0  0  0  0  0
    3.5724   -1.2375    0.0000 C   0  0  0  0  0  0  0  0  0  0  0  0
    2.8579   -1.6500    0.0000 C   0  0  0  0  0  0  0  0  0  0  0  0
    2.1434   -1.2375    0.0000 C   0  0  0  0  0  0  0  0  0  0  0  0
    1.4289   -1.6500    0.0000 C   0  0  0  0  0  0  0  0  0  0  0  0
    0.7145   -1.2375    0.0000 C   0  0  0  0  0  0  0  0  0  0  0  0
    0.0000   -1.6500    0.0000 C   0  0  0  0  0  0  0  0  0  0  0  0
    0.0000   -2.4750    0.0000 C   0  0  2  0  0  0  0  0  0  0  0  0
   -0.7145   -2.8875    0.0000 C   0  0  0  0  0  0  0  0  0  0  0  0
   -0.7145   -3.7125    0.0000 O   0  0  0  0  0  0  0  0  0  0  0  0
   -1.4289   -2.4750    0.0000 O   0  0  0  0  0  0  0  0  0  0  0  0
   -2.1434   -2.8875    0.0000 C   0  0  0  0  0  0  0  0  0  0  0  0
   -2.8579   -2.4750    0.0000 C   0  0  0  0  0  0  0  0  0  0  0  0
   -3.6829   -2.4750    0.0000 C   0  0  0  0  0  0  0  0  0  0  0  0
   -3.2704   -1.7605    0.0000 C   0  0  0  0  0  0  0  0  0  0  0  0
    0.7145   -2.8875    0.0000 N   0  0  0  0  0  0  0  0  0  0  0  0
    1.4681   -2.5519    0.0000 C   0  0  0  0  0  0  0  0  0  0  0  0
    2.0202   -3.1650    0.0000 C   0  0  0  0  0  0  0  0  0  0  0  0
    1.6077   -3.8795    0.0000 C   0  0  2  0  0  0  0  0  0  0  0  0
    1.9432   -4.6332    0.0000 N   0  0  0  0  0  0  0  0  0  0  0  0
    2.7637   -4.7194    0.0000 S   0  0  0  0  0  0  0  0  0  0  0  0
    2.6775   -5.5399    0.0000 O   0  0  0  0  0  0  0  0  0  0  0  0
    2.8500   -3.8989    0.0000 O   0  0  0  0  0  0  0  0  0  0  0  0
    3.5842   -4.8057    0.0000 C   0  0  0  0  0  0  0  0  0  0  0  0
    4.1362   -4.1926    0.0000 C   0  0  0  0  0  0  0  0  0  0  0  0
    4.8899   -4.5281    0.0000 N   0  0  0  0  0  0  0  0  0  0  0  0
    4.8037   -5.3486    0.0000 C   0  0  0  0  0  0  0  0  0  0  0  0
    5.4168   -5.9006    0.0000 N   0  0  0  0  0  0  0  0  0  0  0  0
    6.2014   -5.6457    0.0000 C   0  0  0  0  0  0  0  0  0  0  0  0
    5.2452   -6.7076    0.0000 C   0  0  0  0  0  0  0  0  0  0  0  0
    3.9967   -5.5201    0.0000 S   0  0  0  0  0  0  0  0  0  0  0  0
    0.8007   -3.7080    0.0000 C   0  0  0  0  0  0  0  0  0  0  0  0
    0.1876   -4.2600    0.0000 O   0  0  0  0  0  0  0  0  0  0  0  0
  1  2  1  0  0  0  0
  2  3  1  0  0  0  0
  3  4  4  0  0  0  0
  4  5  4  0  0  0  0
  5  6  4  0  0  0  0
  6  7  1  0  0  0  0
  6  8  4  0  0  0  0
  8  9  4  0  0  0  0
  9 10  4  0  0  0  0
 10 11  4  0  0  0  0
  5 11  4  0  0  0  0
 11 12  4  0  0  0  0
 12 13  4  0  0  0  0
  3 13  4  0  0  0  0
 13 14  1  0  0  0  0
 14 15  1  0  0  0  0
 15 16  1  0  0  0  0
 16 17  2  0  0  0  0
 16 18  1  0  0  0  0
 18 19  1  0  0  0  0
 19 20  1  0  0  0  0
 20 21  1  0  0  0  0
 21 22  1  0  0  0  0
 20 22  1  0  0  0  0
 15 23  1  1  0  0  0
 23 24  1  0  0  0  0
 24 25  1  0  0  0  0
 25 26  1  0  0  0  0
 26 27  1  6  0  0  0
 27 28  1  0  0  0  0
 28 29  2  0  0  0  0
 28 30  2  0  0  0  0
 28 31  1  0  0  0  0
 31 32  4  0  0  0  0
 32 33  4  0  0  0  0
 33 34  4  0  0  0  0
 34 35  1  0  0  0  0
 35 36  1  0  0  0  0
 35 37  1  0  0  0  0
 34 38  4  0  0  0  0
 31 38  4  0  0  0  0
 26 39  1  0  0  0  0
 23 39  1  0  0  0  0
 39 40  2  0  0  0  0
M  END
>  <CdId>
358360

>  <Mol Weight>
588.699

>  <Formula>
C26H32N6O6S2

>  <cmpd_chemblid>
CHEMBL3902346

>  <std_type>
Ki

>  <std_value>
380.0

>  <std_unit>
nM

>  <target_id>
CHEMBL2016

>  <target_name>
Coagulation factor IX

>  <organism>
Homo sapiens

>  <target_type>
SINGLE PROTEIN

$$$$

  Mrv0541 08052111042D          

 31 35  0  0  0  0            999 V2000
   -0.3025   -0.4039    0.0000 C   0  0  0  0  0  0  0  0  0  0  0  0
   -0.0476   -1.1885    0.0000 C   0  0  0  0  0  0  0  0  0  0  0  0
   -0.5996   -1.8016    0.0000 C   0  0  0  0  0  0  0  0  0  0  0  0
   -0.3446   -2.5862    0.0000 C   0  0  0  0  0  0  0  0  0  0  0  0
    0.4623   -2.7578    0.0000 C   0  0  0  0  0  0  0  0  0  0  0  0
    0.7173   -3.5424    0.0000 O   0  0  0  0  0  0  0  0  0  0  0  0
    1.0144   -2.1447    0.0000 C   0  0  0  0  0  0  0  0  0  0  0  0
    1.8394   -2.1447    0.0000 C   0  0  0  0  0  0  0  0  0  0  0  0
    2.0943   -1.3601    0.0000 C   0  0  0  0  0  0  0  0  0  0  0  0
    1.4269   -0.8751    0.0000 N   0  0  0  0  0  0  0  0  0  0  0  0
    0.7594   -1.3601    0.0000 N   0  0  0  0  0  0  0  0  0  0  0  0
    2.9013   -1.1885    0.0000 C   0  0  0  0  0  0  0  0  0  0  0  0
    3.4533   -1.8016    0.0000 C   0  0  0  0  0  0  0  0  0  0  0  0
    3.1984   -2.5862    0.0000 C   0  0  0  0  0  0  0  0  0  0  0  0
    4.0153   -2.7011    0.0000 C   0  0  0  0  0  0  0  0  0  0  0  0
    3.2272   -3.4107    0.0000 N   0  0  0  0  0  0  0  0  0  0  0  0
    3.9556   -3.7981    0.0000 C   0  0  0  0  0  0  0  0  0  0  0  0
    4.6552   -3.3609    0.0000 O   0  0  0  0  0  0  0  0  0  0  0  0
    3.9844   -4.6226    0.0000 C   0  0  0  0  0  0  0  0  0  0  0  0
    4.7128   -5.0099    0.0000 C   0  0  0  0  0  0  0  0  0  0  0  0
    4.7416   -5.8344    0.0000 C   0  0  0  0  0  0  0  0  0  0  0  0
    4.0420   -6.2715    0.0000 C   0  0  0  0  0  0  0  0  0  0  0  0
    4.0708   -7.0960    0.0000 N   0  0  0  0  0  0  0  0  0  0  0  0
    4.7547   -7.5574    0.0000 C   0  0  0  0  0  0  0  0  0  0  0  0
    4.5273   -8.3504    0.0000 C   0  0  0  0  0  0  0  0  0  0  0  0
    3.7028   -8.3792    0.0000 N   0  0  0  0  0  0  0  0  0  0  0  0
    3.4206   -7.6040    0.0000 C   0  0  0  0  0  0  0  0  0  0  0  0
    3.3135   -5.8842    0.0000 C   0  0  0  0  0  0  0  0  0  0  0  0
    3.2847   -5.0597    0.0000 C   0  0  0  0  0  0  0  0  0  0  0  0
    2.5563   -4.6724    0.0000 Cl  0  0  0  0  0  0  0  0  0  0  0  0
    2.3914   -2.7578    0.0000 C   0  0  0  0  0  0  0  0  0  0  0  0
  1  2  1  0  0  0  0
  2  3  4  0  0  0  0
  3  4  4  0  0  0  0
  4  5  4  0  0  0  0
  5  6  1  0  0  0  0
  5  7  4  0  0  0  0
  7  8  4  0  0  0  0
  8  9  4  0  0  0  0
  9 10  4  0  0  0  0
 10 11  4  0  0  0  0
  2 11  4  0  0  0  0
  7 11  4  0  0  0  0
  9 12  1  0  0  0  0
 12 13  1  0  0  0  0
 13 14  1  0  0  0  0
 14 15  1  0  0  0  0
 14 16  1  0  0  0  0
 16 17  1  0  0  0  0
 17 18  2  0  0  0  0
 17 19  1  0  0  0  0
 19 20  4  0  0  0  0
 20 21  4  0  0  0  0
 21 22  4  0  0  0  0
 22 23  1  0  0  0  0
 23 24  4  0  0  0  0
 24 25  4  0  0  0  0
 25 26  4  0  0  0  0
 26 27  4  0  0  0  0
 23 27  4  0  0  0  0
 22 28  4  0  0  0  0
 28 29  4  0  0  0  0
 19 29  4  0  0  0  0
 29 30  1  0  0  0  0
 14 31  1  0  0  0  0
  8 31  1  0  0  0  0
M  END
>  <CdId>
358362

>  <Mol Weight>
435.906

>  <Formula>
C23H22ClN5O2

>  <cmpd_chemblid>
CHEMBL3423053

>  <std_type>
Ki

>  <std_value>
595.0

>  <std_unit>
nM

>  <target_id>
CHEMBL2016

>  <target_name>
Coagulation factor IX

>  <organism>
Homo sapiens

>  <target_type>
SINGLE PROTEIN

$$$$

  Mrv0541 08052111042D          

 35 39  0  0  1  0            999 V2000
    2.7845    0.6979    0.0000 C   0  0  0  0  0  0  0  0  0  0  0  0
    2.0701    1.1104    0.0000 C   0  0  0  0  0  0  0  0  0  0  0  0
    1.3556    0.6979    0.0000 C   0  0  0  0  0  0  0  0  0  0  0  0
    0.6411    1.1104    0.0000 C   0  0  0  0  0  0  0  0  0  0  0  0
   -0.1435    0.8555    0.0000 N   0  0  0  0  0  0  0  0  0  0  0  0
   -0.6284    1.5229    0.0000 C   0  0  0  0  0  0  0  0  0  0  0  0
   -1.4534    1.5229    0.0000 C   0  0  1  0  0  0  0  0  0  0  0  0
   -1.8659    0.8085    0.0000 C   0  0  0  0  0  0  0  0  0  0  0  0
   -2.6909    0.8085    0.0000 N   0  0  0  0  0  0  0  0  0  0  0  0
   -3.1034    0.0940    0.0000 C   0  0  0  0  0  0  0  0  0  0  0  0
   -2.6909   -0.6205    0.0000 O   0  0  0  0  0  0  0  0  0  0  0  0
   -3.9284    0.0940    0.0000 C   0  0  0  0  0  0  0  0  0  0  0  0
   -4.3409   -0.6205    0.0000 C   0  0  0  0  0  0  0  0  0  0  0  0
   -5.1659   -0.6205    0.0000 C   0  0  0  0  0  0  0  0  0  0  0  0
   -5.5784    0.0940    0.0000 C   0  0  0  0  0  0  0  0  0  0  0  0
   -6.4034    0.0940    0.0000 N   0  0  0  0  0  0  0  0  0  0  0  0
   -6.8884   -0.5734    0.0000 C   0  0  0  0  0  0  0  0  0  0  0  0
   -7.6730   -0.3185    0.0000 N   0  0  0  0  0  0  0  0  0  0  0  0
   -7.6730    0.5065    0.0000 N   0  0  0  0  0  0  0  0  0  0  0  0
   -6.8884    0.7614    0.0000 C   0  0  0  0  0  0  0  0  0  0  0  0
   -5.1659    0.8085    0.0000 C   0  0  0  0  0  0  0  0  0  0  0  0
   -4.3409    0.8085    0.0000 C   0  0  0  0  0  0  0  0  0  0  0  0
   -3.9284    1.5229    0.0000 Cl  0  0  0  0  0  0  0  0  0  0  0  0
   -1.8659    2.2374    0.0000 C   0  0  0  0  0  0  0  0  0  0  0  0
   -2.6909    2.2374    0.0000 C   0  0  0  0  0  0  0  0  0  0  0  0
   -3.1034    2.9519    0.0000 C   0  0  0  0  0  0  0  0  0  0  0  0
   -2.6909    3.6664    0.0000 C   0  0  0  0  0  0  0  0  0  0  0  0
   -1.8659    3.6664    0.0000 C   0  0  0  0  0  0  0  0  0  0  0  0
   -1.4534    4.3808    0.0000 F   0  0  0  0  0  0  0  0  0  0  0  0
   -1.4534    2.9519    0.0000 C   0  0  0  0  0  0  0  0  0  0  0  0
   -0.1435    2.1904    0.0000 N   0  0  0  0  0  0  0  0  0  0  0  0
    0.6411    1.9354    0.0000 C   0  0  0  0  0  0  0  0  0  0  0  0
    1.3556    2.3479    0.0000 C   0  0  0  0  0  0  0  0  0  0  0  0
    2.0701    1.9354    0.0000 C   0  0  0  0  0  0  0  0  0  0  0  0
    2.7845    2.3479    0.0000 C   0  0  0  0  0  0  0  0  0  0  0  0
  1  2  1  0  0  0  0
  2  3  4  0  0  0  0
  3  4  4  0  0  0  0
  4  5  4  0  0  0  0
  5  6  4  0  0  0  0
  6  7  1  0  0  0  0
  7  8  1  0  0  0  0
  8  9  1  0  0  0  0
  9 10  1  0  0  0  0
 10 11  2  0  0  0  0
 10 12  1  0  0  0  0
 12 13  4  0  0  0  0
 13 14  4  0  0  0  0
 14 15  4  0  0  0  0
 15 16  1  0  0  0  0
 16 17  4  0  0  0  0
 17 18  4  0  0  0  0
 18 19  4  0  0  0  0
 19 20  4  0  0  0  0
 16 20  4  0  0  0  0
 15 21  4  0  0  0  0
 21 22  4  0  0  0  0
 12 22  4  0  0  0  0
 22 23  1  0  0  0  0
  7 24  1  1  0  0  0
 24 25  4  0  0  0  0
 25 26  4  0  0  0  0
 26 27  4  0  0  0  0
 27 28  4  0  0  0  0
 28 29  1  0  0  0  0
 28 30  4  0  0  0  0
 24 30  4  0  0  0  0
  6 31  4  0  0  0  0
 31 32  4  0  0  0  0
  4 32  4  0  0  0  0
 32 33  4  0  0  0  0
 33 34  4  0  0  0  0
  2 34  4  0  0  0  0
 34 35  1  0  0  0  0
M  STY  1   1 DAT
M  SAL   1  1  31
M  SDT   1 MRV_IMPLICIT_H                                        
M  SDD   1     0.0000    0.0000    DR    ALL  0       0  
M  SED   1 IMPL_H1
M  END
>  <CdId>
358364

>  <Mol Weight>
488.944

>  <Formula>
C26H22ClFN6O

>  <cmpd_chemblid>
CHEMBL3627871

>  <std_type>
Ki

>  <std_value>
5.7

>  <std_unit>
nM

>  <target_id>
CHEMBL2016

>  <target_name>
Coagulation factor IX

>  <organism>
Homo sapiens

>  <target_type>
SINGLE PROTEIN

$$$$

  Mrv0541 08052111042D          

 33 36  0  0  0  0            999 V2000
   -5.3649   -1.3480    0.0000 N   0  0  0  0  0  0  0  0  0  0  0  0
   -4.9524   -2.0625    0.0000 C   0  0  0  0  0  0  0  0  0  0  0  0
   -5.3649   -2.7770    0.0000 N   0  0  0  0  0  0  0  0  0  0  0  0
   -4.1274   -2.0625    0.0000 C   0  0  0  0  0  0  0  0  0  0  0  0
   -3.6425   -1.3951    0.0000 C   0  0  0  0  0  0  0  0  0  0  0  0
   -2.8579   -1.6500    0.0000 C   0  0  0  0  0  0  0  0  0  0  0  0
   -2.1434   -1.2375    0.0000 C   0  0  0  0  0  0  0  0  0  0  0  0
   -2.1434   -0.4125    0.0000 O   0  0  0  0  0  0  0  0  0  0  0  0
   -1.4289   -0.0000    0.0000 C   0  0  0  0  0  0  0  0  0  0  0  0
   -0.7145   -0.4125    0.0000 C   0  0  0  0  0  0  0  0  0  0  0  0
    0.0000   -0.0000    0.0000 O   0  0  0  0  0  0  0  0  0  0  0  0
    0.7145   -0.4125    0.0000 C   0  0  0  0  0  0  0  0  0  0  0  0
    0.7145   -1.2375    0.0000 O   0  0  0  0  0  0  0  0  0  0  0  0
    1.4289   -0.0000    0.0000 N   0  0  0  0  0  0  0  0  0  0  0  0
    2.1434   -0.4125    0.0000 C   0  0  0  0  0  0  0  0  0  0  0  0
    2.8579   -0.0000    0.0000 C   0  0  0  0  0  0  0  0  0  0  0  0
    3.5724   -0.4125    0.0000 C   0  0  0  0  0  0  0  0  0  0  0  0
    3.5724   -1.2375    0.0000 C   0  0  0  0  0  0  0  0  0  0  0  0
    4.2868   -1.6500    0.0000 F   0  0  0  0  0  0  0  0  0  0  0  0
    2.8579   -1.6500    0.0000 C   0  0  0  0  0  0  0  0  0  0  0  0
    2.1434   -1.2375    0.0000 C   0  0  0  0  0  0  0  0  0  0  0  0
    1.4289   -1.6500    0.0000 F   0  0  0  0  0  0  0  0  0  0  0  0
   -1.4289    0.8250    0.0000 C   0  0  0  0  0  0  0  0  0  0  0  0
   -2.1434    1.2375    0.0000 C   0  0  0  0  0  0  0  0  0  0  0  0
   -2.1434    2.0625    0.0000 C   0  0  0  0  0  0  0  0  0  0  0  0
   -1.4289    2.4750    0.0000 C   0  0  0  0  0  0  0  0  0  0  0  0
   -0.7145    2.0625    0.0000 C   0  0  0  0  0  0  0  0  0  0  0  0
   -0.7145    1.2375    0.0000 C   0  0  0  0  0  0  0  0  0  0  0  0
   -1.4289   -1.6500    0.0000 C   0  0  0  0  0  0  0  0  0  0  0  0
   -1.4289   -2.4750    0.0000 C   0  0  0  0  0  0  0  0  0  0  0  0
   -2.1434   -2.8875    0.0000 C   0  0  0  0  0  0  0  0  0  0  0  0
   -2.8579   -2.4750    0.0000 C   0  0  0  0  0  0  0  0  0  0  0  0
   -3.6425   -2.7299    0.0000 S   0  0  0  0  0  0  0  0  0  0  0  0
  1  2  2  0  0  0  0
  2  3  1  0  0  0  0
  2  4  1  0  0  0  0
  4  5  4  0  0  0  0
  5  6  4  0  0  0  0
  6  7  4  0  0  0  0
  7  8  1  0  0  0  0
  8  9  1  0  0  0  0
  9 10  1  0  0  0  0
 10 11  1  0  0  0  0
 11 12  1  0  0  0  0
 12 13  2  0  0  0  0
 12 14  1  0  0  0  0
 14 15  1  0  0  0  0
 15 16  4  0  0  0  0
 16 17  4  0  0  0  0
 17 18  4  0  0  0  0
 18 19  1  0  0  0  0
 18 20  4  0  0  0  0
 20 21  4  0  0  0  0
 15 21  4  0  0  0  0
 21 22  1  0  0  0  0
  9 23  1  0  0  0  0
 23 24  4  0  0  0  0
 24 25  4  0  0  0  0
 25 26  4  0  0  0  0
 26 27  4  0  0  0  0
 27 28  4  0  0  0  0
 23 28  4  0  0  0  0
  7 29  4  0  0  0  0
 29 30  4  0  0  0  0
 30 31  4  0  0  0  0
 31 32  4  0  0  0  0
  6 32  4  0  0  0  0
 32 33  4  0  0  0  0
  4 33  4  0  0  0  0
M  END
>  <CdId>
358365

>  <Mol Weight>
467.488

>  <Formula>
C24H19F2N3O3S

>  <cmpd_chemblid>
CHEMBL598996

>  <std_type>
Ki

>  <std_value>
7.0

>  <std_unit>
nM

>  <target_id>
CHEMBL2016

>  <target_name>
Coagulation factor IX

>  <organism>
Homo sapiens

>  <target_type>
SINGLE PROTEIN

$$$$

  Mrv0541 08052111042D          

 39 43  0  0  1  0            999 V2000
    3.9849    3.9849    0.0000 C   0  0  0  0  0  0  0  0  0  0  0  0
    4.3974    3.2704    0.0000 C   0  0  0  0  0  0  0  0  0  0  0  0
    5.2224    3.2704    0.0000 C   0  0  0  0  0  0  0  0  0  0  0  0
    5.6349    2.5559    0.0000 C   0  0  0  0  0  0  0  0  0  0  0  0
    6.4599    2.5559    0.0000 C   0  0  0  0  0  0  0  0  0  0  0  0
    6.8724    1.8414    0.0000 C   0  0  2  0  0  0  0  0  0  0  0  0
    7.6974    1.8414    0.0000 N   0  0  0  0  0  0  0  0  0  0  0  0
    8.1099    2.5559    0.0000 C   0  0  0  0  0  0  0  0  0  0  0  0
    8.9349    2.5559    0.0000 C   0  0  0  0  0  0  0  0  0  0  0  0
    9.3474    1.8414    0.0000 C   0  0  0  0  0  0  0  0  0  0  0  0
   10.1724    1.8414    0.0000 C   0  0  0  0  0  0  0  0  0  0  0  0
   10.5849    2.5559    0.0000 C   0  0  0  0  0  0  0  0  0  0  0  0
   10.1724    3.2704    0.0000 F   0  0  0  0  0  0  0  0  0  0  0  0
   11.4099    2.5559    0.0000 C   0  0  0  0  0  0  0  0  0  0  0  0
   11.8224    1.8414    0.0000 C   0  0  0  0  0  0  0  0  0  0  0  0
   11.4099    1.1270    0.0000 C   0  0  0  0  0  0  0  0  0  0  0  0
   11.8224    0.4125    0.0000 Cl  0  0  0  0  0  0  0  0  0  0  0  0
   10.5849    1.1270    0.0000 C   0  0  0  0  0  0  0  0  0  0  0  0
   10.1724    0.4125    0.0000 F   0  0  0  0  0  0  0  0  0  0  0  0
    8.9349    1.1270    0.0000 C   0  0  0  0  0  0  0  0  0  0  0  0
    8.1099    1.1270    0.0000 C   0  0  0  0  0  0  0  0  0  0  0  0
    7.6974    0.4125    0.0000 O   0  0  0  0  0  0  0  0  0  0  0  0
    6.4599    1.1270    0.0000 C   0  0  0  0  0  0  0  0  0  0  0  0
    5.6349    1.1270    0.0000 C   0  0  0  0  0  0  0  0  0  0  0  0
    5.2224    0.4125    0.0000 C   0  0  0  0  0  0  0  0  0  0  0  0
    5.6349   -0.3020    0.0000 C   0  0  0  0  0  0  0  0  0  0  0  0
    6.4599   -0.3020    0.0000 C   0  0  0  0  0  0  0  0  0  0  0  0
    6.8724    0.4125    0.0000 N   0  0  0  0  0  0  0  0  0  0  0  0
    4.3974    0.4125    0.0000 C   0  0  0  0  0  0  0  0  0  0  0  0
    3.9849   -0.3020    0.0000 C   0  0  0  0  0  0  0  0  0  0  0  0
    3.1599   -0.3020    0.0000 C   0  0  0  0  0  0  0  0  0  0  0  0
    2.7474    0.4125    0.0000 C   0  0  0  0  0  0  0  0  0  0  0  0
    1.9224    0.4125    0.0000 C   0  0  0  0  0  0  0  0  0  0  0  0
    1.0974    0.4125    0.0000 N   0  0  0  0  0  0  0  0  0  0  0  0
    3.1599    1.1270    0.0000 C   0  0  0  0  0  0  0  0  0  0  0  0
    3.9849    1.1270    0.0000 C   0  0  0  0  0  0  0  0  0  0  0  0
    4.3974    1.8414    0.0000 N   0  0  0  0  0  0  0  0  0  0  0  0
    3.9849    2.5559    0.0000 C   0  0  0  0  0  0  0  0  0  0  0  0
    3.1599    2.5559    0.0000 O   0  0  0  0  0  0  0  0  0  0  0  0
  1  2  1  0  0  0  0
  2  3  1  0  0  0  0
  3  4  1  0  0  0  0
  4  5  1  0  0  0  0
  5  6  1  0  0  0  0
  6  7  1  6  0  0  0
  7  8  1  0  0  0  0
  8  9  1  0  0  0  0
  9 10  1  0  0  0  0
 10 11  1  0  0  0  0
 11 12  4  0  0  0  0
 12 13  1  0  0  0  0
 12 14  4  0  0  0  0
 14 15  4  0  0  0  0
 15 16  4  0  0  0  0
 16 17  1  0  0  0  0
 16 18  4  0  0  0  0
 11 18  4  0  0  0  0
 18 19  1  0  0  0  0
 10 20  2  0  0  0  0
 20 21  1  0  0  0  0
  7 21  1  0  0  0  0
 21 22  2  0  0  0  0
  6 23  1  0  0  0  0
 23 24  4  0  0  0  0
 24 25  4  0  0  0  0
 25 26  4  0  0  0  0
 26 27  4  0  0  0  0
 27 28  4  0  0  0  0
 23 28  4  0  0  0  0
 25 29  1  0  0  0  0
 29 30  4  0  0  0  0
 30 31  4  0  0  0  0
 31 32  4  0  0  0  0
 32 33  1  0  0  0  0
 33 34  3  0  0  0  0
 32 35  4  0  0  0  0
 35 36  4  0  0  0  0
 29 36  4  0  0  0  0
 36 37  1  0  0  0  0
 37 38  1  0  0  0  0
  2 38  1  0  0  0  0
 38 39  2  0  0  0  0
M  END
>  <CdId>
358366

>  <Mol Weight>
546.995

>  <Formula>
C30H25ClF2N4O2

>  <cmpd_chemblid>
CHEMBL3952811

>  <std_type>
Ki

>  <std_value>
60.56

>  <std_unit>
nM

>  <target_id>
CHEMBL2016

>  <target_name>
Coagulation factor IX

>  <organism>
Homo sapiens

>  <target_type>
SINGLE PROTEIN

$$$$

  Mrv0541 08052111042D          

 29 31  0  0  1  0            999 V2000
   -1.4289   -4.1250    0.0000 C   0  0  0  0  0  0  0  0  0  0  0  0
   -1.4289   -4.9500    0.0000 C   0  0  0  0  0  0  0  0  0  0  0  0
   -0.7145   -5.3625    0.0000 C   0  0  0  0  0  0  0  0  0  0  0  0
   -0.7145   -6.1875    0.0000 C   0  0  0  0  0  0  0  0  0  0  0  0
   -1.4289   -6.6000    0.0000 C   0  0  0  0  0  0  0  0  0  0  0  0
   -1.4289   -7.4250    0.0000 C   0  0  0  0  0  0  0  0  0  0  0  0
   -0.7145   -7.8375    0.0000 N   0  0  0  0  0  0  0  0  0  0  0  0
    0.0000   -7.4250    0.0000 C   0  0  0  0  0  0  0  0  0  0  0  0
    0.7145   -7.8375    0.0000 C   0  0  0  0  0  0  0  0  0  0  0  0
    0.7145   -8.6625    0.0000 O   0  0  0  0  0  0  0  0  0  0  0  0
   -0.0000   -9.0750    0.0000 C   0  0  2  0  0  0  0  0  0  0  0  0
   -0.0000   -9.9000    0.0000 C   0  0  1  0  0  0  0  0  0  0  0  0
   -0.7145  -10.3125    0.0000 O   0  0  0  0  0  0  0  0  0  0  0  0
    0.7145  -10.3125    0.0000 C   0  0  0  0  0  0  0  0  0  0  0  0
    0.7145  -11.1375    0.0000 O   0  0  0  0  0  0  0  0  0  0  0  0
    1.4289   -9.9000    0.0000 N   0  0  0  0  0  0  0  0  0  0  0  0
    2.1434  -10.3125    0.0000 C   0  0  0  0  0  0  0  0  0  0  0  0
    2.8579   -9.9000    0.0000 C   0  0  0  0  0  0  0  0  0  0  0  0
    3.5724  -10.3125    0.0000 C   0  0  0  0  0  0  0  0  0  0  0  0
    3.5724  -11.1375    0.0000 C   0  0  0  0  0  0  0  0  0  0  0  0
    4.2868  -11.5500    0.0000 C   0  0  0  0  0  0  0  0  0  0  0  0
    5.0013  -11.1375    0.0000 N   0  0  0  0  0  0  0  0  0  0  0  0
    4.2868  -12.3750    0.0000 N   0  0  0  0  0  0  0  0  0  0  0  0
    2.8579  -11.5500    0.0000 C   0  0  0  0  0  0  0  0  0  0  0  0
    2.1434  -11.1375    0.0000 C   0  0  0  0  0  0  0  0  0  0  0  0
   -0.7145   -8.6625    0.0000 C   0  0  0  0  0  0  0  0  0  0  0  0
   -1.4289   -9.0750    0.0000 O   0  0  0  0  0  0  0  0  0  0  0  0
   -2.1434   -6.1875    0.0000 C   0  0  0  0  0  0  0  0  0  0  0  0
   -2.1434   -5.3625    0.0000 C   0  0  0  0  0  0  0  0  0  0  0  0
  1  2  1  0  0  0  0
  2  3  4  0  0  0  0
  3  4  4  0  0  0  0
  4  5  4  0  0  0  0
  5  6  1  0  0  0  0
  6  7  1  0  0  0  0
  7  8  1  0  0  0  0
  8  9  1  0  0  0  0
  9 10  1  0  0  0  0
 10 11  1  0  0  0  0
 11 12  1  6  0  0  0
 12 13  1  6  0  0  0
 12 14  1  0  0  0  0
 14 15  2  0  0  0  0
 14 16  1  0  0  0  0
 16 17  1  0  0  0  0
 17 18  4  0  0  0  0
 18 19  4  0  0  0  0
 19 20  4  0  0  0  0
 20 21  1  0  0  0  0
 21 22  2  0  0  0  0
 21 23  1  0  0  0  0
 20 24  4  0  0  0  0
 24 25  4  0  0  0  0
 17 25  4  0  0  0  0
 11 26  1  0  0  0  0
  7 26  1  0  0  0  0
 26 27  2  0  0  0  0
  5 28  4  0  0  0  0
 28 29  4  0  0  0  0
  2 29  4  0  0  0  0
M  END
>  <CdId>
358367

>  <Mol Weight>
396.4397

>  <Formula>
C21H24N4O4

>  <cmpd_chemblid>
CHEMBL3658399

>  <std_type>
Ki

>  <std_value>
65.0

>  <std_unit>
nM

>  <target_id>
CHEMBL2016

>  <target_name>
Coagulation factor IX

>  <organism>
Homo sapiens

>  <target_type>
SINGLE PROTEIN

$$$$

  Mrv0541 08052111042D          

 40 45  0  0  1  0            999 V2000
    4.7674    0.7556    0.0000 C   0  0  0  0  0  0  0  0  0  0  0  0
    3.9604    0.5840    0.0000 C   0  0  0  0  0  0  0  0  0  0  0  0
    3.7054   -0.2006    0.0000 C   0  0  0  0  0  0  0  0  0  0  0  0
    2.8985   -0.3721    0.0000 C   0  0  0  0  0  0  0  0  0  0  0  0
    2.3464    0.2410    0.0000 C   0  0  0  0  0  0  0  0  0  0  0  0
    2.6014    1.0256    0.0000 C   0  0  0  0  0  0  0  0  0  0  0  0
    3.4084    1.1971    0.0000 C   0  0  0  0  0  0  0  0  0  0  0  0
    1.9339    1.5105    0.0000 C   0  0  0  0  0  0  0  0  0  0  0  0
    1.9339    2.3355    0.0000 C   0  0  0  0  0  0  0  0  0  0  0  0
    1.2195    2.7480    0.0000 C   0  0  0  0  0  0  0  0  0  0  0  0
    0.5050    2.3355    0.0000 O   0  0  0  0  0  0  0  0  0  0  0  0
    1.2195    3.5730    0.0000 O   0  0  0  0  0  0  0  0  0  0  0  0
    1.2665    1.0256    0.0000 C   0  0  0  0  0  0  0  0  0  0  0  0
    1.5214    0.2410    0.0000 N   0  0  0  0  0  0  0  0  0  0  0  0
    0.9694   -0.3721    0.0000 C   0  0  0  0  0  0  0  0  0  0  0  0
    0.1624   -0.2006    0.0000 C   0  0  1  0  0  0  0  0  0  0  0  0
    0.1336   -1.0251    0.0000 N   0  0  0  0  0  0  0  0  0  0  0  0
    0.8333   -1.4623    0.0000 C   0  0  0  0  0  0  0  0  0  0  0  0
    1.5617   -1.0750    0.0000 O   0  0  0  0  0  0  0  0  0  0  0  0
    0.8045   -2.2868    0.0000 C   0  0  0  0  0  0  0  0  0  0  0  0
    1.5041   -2.7240    0.0000 C   0  0  0  0  0  0  0  0  0  0  0  0
    2.2326   -2.3366    0.0000 Cl  0  0  0  0  0  0  0  0  0  0  0  0
    1.4753   -3.5485    0.0000 C   0  0  0  0  0  0  0  0  0  0  0  0
    0.7469   -3.9358    0.0000 C   0  0  0  0  0  0  0  0  0  0  0  0
    0.7181   -4.7603    0.0000 N   0  0  0  0  0  0  0  0  0  0  0  0
    1.3682   -5.2682    0.0000 C   0  0  0  0  0  0  0  0  0  0  0  0
    1.0861   -6.0434    0.0000 N   0  0  0  0  0  0  0  0  0  0  0  0
    0.2616   -6.0146    0.0000 N   0  0  0  0  0  0  0  0  0  0  0  0
    0.0342   -5.2216    0.0000 C   0  0  0  0  0  0  0  0  0  0  0  0
    0.0473   -3.4986    0.0000 C   0  0  0  0  0  0  0  0  0  0  0  0
    0.0761   -2.6741    0.0000 C   0  0  0  0  0  0  0  0  0  0  0  0
   -0.6236   -2.2369    0.0000 Cl  0  0  0  0  0  0  0  0  0  0  0  0
   -0.6545   -0.3154    0.0000 C   0  0  0  0  0  0  0  0  0  0  0  0
   -0.9636   -1.0803    0.0000 C   0  0  0  0  0  0  0  0  0  0  0  0
   -1.7806   -1.1952    0.0000 C   0  0  0  0  0  0  0  0  0  0  0  0
   -2.2885   -0.5450    0.0000 C   0  0  0  0  0  0  0  0  0  0  0  0
   -1.9794    0.2199    0.0000 C   0  0  0  0  0  0  0  0  0  0  0  0
   -1.1625    0.3347    0.0000 C   0  0  0  0  0  0  0  0  0  0  0  0
   -0.0925    0.5840    0.0000 C   0  0  0  0  0  0  0  0  0  0  0  0
    0.4595    1.1971    0.0000 C   0  0  0  0  0  0  0  0  0  0  0  0
  1  2  1  0  0  0  0
  2  3  4  0  0  0  0
  3  4  4  0  0  0  0
  4  5  4  0  0  0  0
  5  6  4  0  0  0  0
  6  7  4  0  0  0  0
  2  7  4  0  0  0  0
  6  8  4  0  0  0  0
  8  9  1  0  0  0  0
  9 10  1  0  0  0  0
 10 11  2  0  0  0  0
 10 12  1  0  0  0  0
  8 13  4  0  0  0  0
 13 14  4  0  0  0  0
  5 14  4  0  0  0  0
 14 15  1  0  0  0  0
 15 16  1  0  0  0  0
 16 17  1  6  0  0  0
 17 18  1  0  0  0  0
 18 19  2  0  0  0  0
 18 20  1  0  0  0  0
 20 21  4  0  0  0  0
 21 22  1  0  0  0  0
 21 23  4  0  0  0  0
 23 24  4  0  0  0  0
 24 25  1  0  0  0  0
 25 26  4  0  0  0  0
 26 27  4  0  0  0  0
 27 28  4  0  0  0  0
 28 29  4  0  0  0  0
 25 29  4  0  0  0  0
 24 30  4  0  0  0  0
 30 31  4  0  0  0  0
 20 31  4  0  0  0  0
 31 32  1  0  0  0  0
 16 33  1  1  0  0  0
 33 34  4  0  0  0  0
 34 35  4  0  0  0  0
 35 36  4  0  0  0  0
 36 37  4  0  0  0  0
 37 38  4  0  0  0  0
 33 38  4  0  0  0  0
 16 39  1  0  0  0  0
 39 40  1  0  0  0  0
 13 40  1  0  0  0  0
M  END
>  <CdId>
358368

>  <Mol Weight>
574.457

>  <Formula>
C30H25Cl2N5O3

>  <cmpd_chemblid>
CHEMBL3628963

>  <std_type>
Ki

>  <std_value>
2.9

>  <std_unit>
nM

>  <target_id>
CHEMBL2016

>  <target_name>
Coagulation factor IX

>  <organism>
Homo sapiens

>  <target_type>
SINGLE PROTEIN

$$$$

  Mrv0541 08052111042D          

 30 33  0  0  0  0            999 V2000
   -4.3729    1.1952    0.0000 N   0  0  0  0  0  0  0  0  0  0  0  0
   -3.5479    1.1952    0.0000 C   0  0  0  0  0  0  0  0  0  0  0  0
   -3.1354    1.9096    0.0000 N   0  0  0  0  0  0  0  0  0  0  0  0
   -3.1354    0.4807    0.0000 C   0  0  0  0  0  0  0  0  0  0  0  0
   -2.3149    0.3945    0.0000 C   0  0  0  0  0  0  0  0  0  0  0  0
   -2.1434   -0.4125    0.0000 C   0  0  0  0  0  0  0  0  0  0  0  0
   -1.4289   -0.8250    0.0000 C   0  0  0  0  0  0  0  0  0  0  0  0
   -0.7145   -0.4125    0.0000 O   0  0  0  0  0  0  0  0  0  0  0  0
    0.0000   -0.8250    0.0000 C   0  0  0  0  0  0  0  0  0  0  0  0
    0.7145   -0.4125    0.0000 C   0  0  0  0  0  0  0  0  0  0  0  0
    0.7145    0.4125    0.0000 O   0  0  0  0  0  0  0  0  0  0  0  0
    1.4289   -0.8250    0.0000 N   0  0  0  0  0  0  0  0  0  0  0  0
    2.1434   -0.4125    0.0000 C   0  0  0  0  0  0  0  0  0  0  0  0
    2.8579   -0.8250    0.0000 C   0  0  0  0  0  0  0  0  0  0  0  0
    3.5724   -0.4125    0.0000 C   0  0  0  0  0  0  0  0  0  0  0  0
    4.2868   -0.8250    0.0000 C   0  0  0  0  0  0  0  0  0  0  0  0
    4.2868   -1.6500    0.0000 C   0  0  0  0  0  0  0  0  0  0  0  0
    3.5724   -2.0625    0.0000 C   0  0  0  0  0  0  0  0  0  0  0  0
    2.8579   -1.6500    0.0000 C   0  0  0  0  0  0  0  0  0  0  0  0
   -0.0000   -1.6500    0.0000 C   0  0  0  0  0  0  0  0  0  0  0  0
    0.7145   -2.0625    0.0000 C   0  0  0  0  0  0  0  0  0  0  0  0
    0.7145   -2.8875    0.0000 C   0  0  0  0  0  0  0  0  0  0  0  0
    0.0000   -3.3000    0.0000 C   0  0  0  0  0  0  0  0  0  0  0  0
   -0.7145   -2.8875    0.0000 C   0  0  0  0  0  0  0  0  0  0  0  0
   -0.7145   -2.0625    0.0000 C   0  0  0  0  0  0  0  0  0  0  0  0
   -1.4289   -1.6500    0.0000 C   0  0  0  0  0  0  0  0  0  0  0  0
   -2.1434   -2.0625    0.0000 C   0  0  0  0  0  0  0  0  0  0  0  0
   -2.8579   -1.6500    0.0000 C   0  0  0  0  0  0  0  0  0  0  0  0
   -2.8579   -0.8250    0.0000 C   0  0  0  0  0  0  0  0  0  0  0  0
   -3.4710   -0.2730    0.0000 S   0  0  0  0  0  0  0  0  0  0  0  0
  1  2  2  0  0  0  0
  2  3  1  0  0  0  0
  2  4  1  0  0  0  0
  4  5  4  0  0  0  0
  5  6  4  0  0  0  0
  6  7  4  0  0  0  0
  7  8  1  0  0  0  0
  8  9  1  0  0  0  0
  9 10  1  0  0  0  0
 10 11  2  0  0  0  0
 10 12  1  0  0  0  0
 12 13  1  0  0  0  0
 13 14  1  0  0  0  0
 14 15  4  0  0  0  0
 15 16  4  0  0  0  0
 16 17  4  0  0  0  0
 17 18  4  0  0  0  0
 18 19  4  0  0  0  0
 14 19  4  0  0  0  0
  9 20  1  0  0  0  0
 20 21  4  0  0  0  0
 21 22  4  0  0  0  0
 22 23  4  0  0  0  0
 23 24  4  0  0  0  0
 24 25  4  0  0  0  0
 20 25  4  0  0  0  0
  7 26  4  0  0  0  0
 26 27  4  0  0  0  0
 27 28  4  0  0  0  0
 28 29  4  0  0  0  0
  6 29  4  0  0  0  0
 29 30  4  0  0  0  0
  4 30  4  0  0  0  0
M  END
>  <CdId>
358369

>  <Mol Weight>
415.507

>  <Formula>
C24H21N3O2S

>  <cmpd_chemblid>
CHEMBL597554

>  <std_type>
Ki

>  <std_value>
390.0

>  <std_unit>
nM

>  <target_id>
CHEMBL2016

>  <target_name>
Coagulation factor IX

>  <organism>
Homo sapiens

>  <target_type>
SINGLE PROTEIN

$$$$

  Mrv0541 08052111042D          

 46 50  0  0  0  0            999 V2000
    2.5151   -2.4309    0.0000 N   0  0  0  0  0  0  0  0  0  0  0  0
    1.8006   -2.0184    0.0000 C   0  0  0  0  0  0  0  0  0  0  0  0
    1.8006   -1.1934    0.0000 N   0  0  0  0  0  0  0  0  0  0  0  0
    1.0861   -2.4309    0.0000 C   0  0  0  0  0  0  0  0  0  0  0  0
    1.0861   -3.2559    0.0000 C   0  0  0  0  0  0  0  0  0  0  0  0
    0.3717   -3.6684    0.0000 C   0  0  0  0  0  0  0  0  0  0  0  0
   -0.3428   -3.2559    0.0000 C   0  0  0  0  0  0  0  0  0  0  0  0
   -1.1274   -3.5108    0.0000 N   0  0  0  0  0  0  0  0  0  0  0  0
   -1.6123   -2.8434    0.0000 C   0  0  0  0  0  0  0  0  0  0  0  0
   -1.1274   -2.1760    0.0000 C   0  0  0  0  0  0  0  0  0  0  0  0
   -1.3824   -1.3913    0.0000 C   0  0  0  0  0  0  0  0  0  0  0  0
   -2.1893   -1.2198    0.0000 C   0  0  0  0  0  0  0  0  0  0  0  0
   -2.4443   -0.4352    0.0000 C   0  0  0  0  0  0  0  0  0  0  0  0
   -3.2512   -0.2637    0.0000 C   0  0  0  0  0  0  0  0  0  0  0  0
   -3.5062    0.5210    0.0000 C   0  0  0  0  0  0  0  0  0  0  0  0
   -2.9541    1.1341    0.0000 C   0  0  0  0  0  0  0  0  0  0  0  0
   -3.2091    1.9187    0.0000 N   0  0  0  0  0  0  0  0  0  0  0  0
   -2.1472    0.9625    0.0000 C   0  0  0  0  0  0  0  0  0  0  0  0
   -1.8922    0.1779    0.0000 C   0  0  0  0  0  0  0  0  0  0  0  0
   -0.8303   -0.7782    0.0000 C   0  0  0  0  0  0  0  0  0  0  0  0
   -0.0234   -0.9498    0.0000 O   0  0  0  0  0  0  0  0  0  0  0  0
   -1.0853    0.0064    0.0000 N   0  0  0  0  0  0  0  0  0  0  0  0
   -0.5332    0.6195    0.0000 C   0  0  0  0  0  0  0  0  0  0  0  0
   -0.7882    1.4041    0.0000 C   0  0  0  0  0  0  0  0  0  0  0  0
   -0.2361    2.0172    0.0000 C   0  0  0  0  0  0  0  0  0  0  0  0
    0.5708    1.8457    0.0000 C   0  0  0  0  0  0  0  0  0  0  0  0
    1.1229    2.4588    0.0000 N   0  0  0  0  0  0  0  0  0  0  0  0
    0.9513    3.2657    0.0000 C   0  0  0  0  0  0  0  0  0  0  0  0
    1.6658    3.6782    0.0000 N   0  0  0  0  0  0  0  0  0  0  0  0
    2.2789    3.1262    0.0000 C   0  0  0  0  0  0  0  0  0  0  0  0
    3.0994    3.2124    0.0000 C   0  0  0  0  0  0  0  0  0  0  0  0
    3.5843    2.5450    0.0000 C   0  0  0  0  0  0  0  0  0  0  0  0
    3.2488    1.7913    0.0000 C   0  0  0  0  0  0  0  0  0  0  0  0
    2.4283    1.7051    0.0000 C   0  0  0  0  0  0  0  0  0  0  0  0
    1.9433    2.3725    0.0000 C   0  0  0  0  0  0  0  0  0  0  0  0
    0.8258    1.0610    0.0000 C   0  0  0  0  0  0  0  0  0  0  0  0
    0.2737    0.4479    0.0000 C   0  0  0  0  0  0  0  0  0  0  0  0
   -0.3428   -2.4309    0.0000 C   0  0  0  0  0  0  0  0  0  0  0  0
    0.3717   -2.0184    0.0000 C   0  0  0  0  0  0  0  0  0  0  0  0
    5.6984   -0.8839    0.0000 O   0  0  0  0  0  0  0  0  0  0  0  0
    6.4129   -0.4714    0.0000 C   0  0  0  0  0  0  0  0  0  0  0  0
    7.1274   -0.8839    0.0000 O   0  0  0  0  0  0  0  0  0  0  0  0
    6.4129    0.3536    0.0000 C   0  0  0  0  0  0  0  0  0  0  0  0
    6.4129    1.1786    0.0000 F   0  0  0  0  0  0  0  0  0  0  0  0
    7.2379    0.3536    0.0000 F   0  0  0  0  0  0  0  0  0  0  0  0
    5.5879    0.3536    0.0000 F   0  0  0  0  0  0  0  0  0  0  0  0
  1  2  2  0  0  0  0
  2  3  1  0  0  0  0
  2  4  1  0  0  0  0
  4  5  4  0  0  0  0
  5  6  4  0  0  0  0
  6  7  4  0  0  0  0
  7  8  4  0  0  0  0
  8  9  4  0  0  0  0
  9 10  4  0  0  0  0
 10 11  1  0  0  0  0
 11 12  1  0  0  0  0
 12 13  1  0  0  0  0
 13 14  4  0  0  0  0
 14 15  4  0  0  0  0
 15 16  4  0  0  0  0
 16 17  1  0  0  0  0
 16 18  4  0  0  0  0
 18 19  4  0  0  0  0
 13 19  4  0  0  0  0
 11 20  1  0  0  0  0
 20 21  2  0  0  0  0
 20 22  1  0  0  0  0
 22 23  1  0  0  0  0
 23 24  4  0  0  0  0
 24 25  4  0  0  0  0
 25 26  4  0  0  0  0
 26 27  1  0  0  0  0
 27 28  4  0  0  0  0
 28 29  4  0  0  0  0
 29 30  4  0  0  0  0
 30 31  4  0  0  0  0
 31 32  4  0  0  0  0
 32 33  4  0  0  0  0
 33 34  4  0  0  0  0
 34 35  4  0  0  0  0
 30 35  4  0  0  0  0
 27 35  4  0  0  0  0
 26 36  4  0  0  0  0
 36 37  4  0  0  0  0
 23 37  4  0  0  0  0
 10 38  4  0  0  0  0
  7 38  4  0  0  0  0
 38 39  4  0  0  0  0
  4 39  4  0  0  0  0
 40 41  2  0  0  0  0
 41 42  1  0  0  0  0
 41 43  1  0  0  0  0
 43 44  1  0  0  0  0
 43 45  1  0  0  0  0
 43 46  1  0  0  0  0
M  STY  1   1 DAT
M  SAL   1  1   8
M  SDT   1 MRV_IMPLICIT_H                                        
M  SDD   1     0.0000    0.0000    DR    ALL  0       0  
M  SED   1 IMPL_H1
M  END
>  <CdId>
358370

>  <Mol Weight>
627.6157

>  <Formula>
C33H28F3N7O3

>  <cmpd_chemblid>
CHEMBL362184

>  <std_type>
Ki

>  <std_value>
75.0

>  <std_unit>
nM

>  <target_id>
CHEMBL2016

>  <target_name>
Coagulation factor IX

>  <organism>
Homo sapiens

>  <target_type>
SINGLE PROTEIN

$$$$

  Mrv0541 08052111042D          

 43 45  0  0  1  0            999 V2000
    4.2636   -1.9677    0.0000 N   0  0  0  0  0  0  0  0  0  0  0  0
    3.5491   -1.5552    0.0000 C   0  0  0  0  0  0  0  0  0  0  0  0
    3.5491   -0.7302    0.0000 N   0  0  0  0  0  0  0  0  0  0  0  0
    2.8347   -1.9677    0.0000 C   0  0  0  0  0  0  0  0  0  0  0  0
    2.8347   -2.7927    0.0000 C   0  0  0  0  0  0  0  0  0  0  0  0
    2.1202   -3.2052    0.0000 C   0  0  0  0  0  0  0  0  0  0  0  0
    1.4057   -2.7927    0.0000 C   0  0  0  0  0  0  0  0  0  0  0  0
    0.6211   -3.0476    0.0000 S   0  0  0  0  0  0  0  0  0  0  0  0
    0.1362   -2.3802    0.0000 C   0  0  0  0  0  0  0  0  0  0  0  0
    0.6211   -1.7127    0.0000 C   0  0  0  0  0  0  0  0  0  0  0  0
    0.3662   -0.9281    0.0000 C   0  0  0  0  0  0  0  0  0  0  0  0
    0.9182   -0.3150    0.0000 C   0  0  0  0  0  0  0  0  0  0  0  0
    0.6633    0.4696    0.0000 C   0  0  0  0  0  0  0  0  0  0  0  0
   -0.1437    0.6411    0.0000 C   0  0  0  0  0  0  0  0  0  0  0  0
   -0.3987    1.4257    0.0000 C   0  0  0  0  0  0  0  0  0  0  0  0
    0.1534    2.0388    0.0000 C   0  0  0  0  0  0  0  0  0  0  0  0
    0.9603    1.8673    0.0000 C   0  0  0  0  0  0  0  0  0  0  0  0
    1.2153    1.0827    0.0000 C   0  0  0  0  0  0  0  0  0  0  0  0
   -0.4408   -0.7566    0.0000 C   0  0  0  0  0  0  0  0  0  0  0  0
   -0.9928   -1.3697    0.0000 O   0  0  0  0  0  0  0  0  0  0  0  0
   -0.6958    0.0280    0.0000 N   0  0  0  0  0  0  0  0  0  0  0  0
   -1.5027    0.1996    0.0000 C   0  0  0  0  0  0  0  0  0  0  0  0
   -2.0548   -0.4135    0.0000 C   0  0  0  0  0  0  0  0  0  0  0  0
   -2.8617   -0.2420    0.0000 C   0  0  0  0  0  0  0  0  0  0  0  0
   -3.1167    0.5426    0.0000 C   0  0  0  0  0  0  0  0  0  0  0  0
   -2.5646    1.1557    0.0000 C   0  0  0  0  0  0  0  0  0  0  0  0
   -1.7577    0.9842    0.0000 C   0  0  1  0  0  0  0  0  0  0  0  0
   -1.2056    1.5973    0.0000 C   0  0  0  0  0  0  0  0  0  0  0  0
   -0.4520    1.9328    0.0000 O   0  0  0  0  0  0  0  0  0  0  0  0
   -1.4606    2.3819    0.0000 N   0  0  0  0  0  0  0  0  0  0  0  0
   -2.2675    2.5534    0.0000 C   0  0  0  0  0  0  0  0  0  0  0  0
   -2.5225    3.3380    0.0000 C   0  0  0  0  0  0  0  0  0  0  0  0
   -3.3295    3.5096    0.0000 N   0  0  0  0  0  0  0  0  0  0  0  0
   -1.9704    3.9511    0.0000 O   0  0  0  0  0  0  0  0  0  0  0  0
    1.4057   -1.9677    0.0000 C   0  0  0  0  0  0  0  0  0  0  0  0
    2.1202   -1.5552    0.0000 C   0  0  0  0  0  0  0  0  0  0  0  0
    6.3777   -0.8839    0.0000 O   0  0  0  0  0  0  0  0  0  0  0  0
    7.0922   -0.4714    0.0000 C   0  0  0  0  0  0  0  0  0  0  0  0
    7.8066   -0.8839    0.0000 O   0  0  0  0  0  0  0  0  0  0  0  0
    7.0922    0.3536    0.0000 C   0  0  0  0  0  0  0  0  0  0  0  0
    7.0922    1.1786    0.0000 F   0  0  0  0  0  0  0  0  0  0  0  0
    7.9172    0.3536    0.0000 F   0  0  0  0  0  0  0  0  0  0  0  0
    6.2672    0.3536    0.0000 F   0  0  0  0  0  0  0  0  0  0  0  0
  1  2  2  0  0  0  0
  2  3  1  0  0  0  0
  2  4  1  0  0  0  0
  4  5  4  0  0  0  0
  5  6  4  0  0  0  0
  6  7  4  0  0  0  0
  7  8  4  0  0  0  0
  8  9  4  0  0  0  0
  9 10  4  0  0  0  0
 10 11  1  0  0  0  0
 11 12  1  0  0  0  0
 12 13  1  0  0  0  0
 13 14  4  0  0  0  0
 14 15  4  0  0  0  0
 15 16  4  0  0  0  0
 16 17  4  0  0  0  0
 17 18  4  0  0  0  0
 13 18  4  0  0  0  0
 11 19  1  0  0  0  0
 19 20  2  0  0  0  0
 19 21  1  0  0  0  0
 21 22  1  0  0  0  0
 22 23  1  0  0  0  0
 23 24  1  0  0  0  0
 24 25  1  0  0  0  0
 25 26  1  0  0  0  0
 26 27  1  0  0  0  0
 22 27  1  0  0  0  0
 27 28  1  1  0  0  0
 28 29  2  0  0  0  0
 28 30  1  0  0  0  0
 30 31  1  0  0  0  0
 31 32  1  0  0  0  0
 32 33  1  0  0  0  0
 32 34  2  0  0  0  0
 10 35  4  0  0  0  0
  7 35  4  0  0  0  0
 35 36  4  0  0  0  0
  4 36  4  0  0  0  0
 37 38  2  0  0  0  0
 38 39  1  0  0  0  0
 38 40  1  0  0  0  0
 40 41  1  0  0  0  0
 40 42  1  0  0  0  0
 40 43  1  0  0  0  0
M  END
>  <CdId>
358371

>  <Mol Weight>
619.655

>  <Formula>
C29H32F3N5O5S

>  <cmpd_chemblid>
CHEMBL369777

>  <std_type>
Ki

>  <std_value>
280.0

>  <std_unit>
nM

>  <target_id>
CHEMBL2016

>  <target_name>
Coagulation factor IX

>  <organism>
Homo sapiens

>  <target_type>
SINGLE PROTEIN

$$$$

  Mrv0541 08052111042D          

 39 42  0  0  0  0            999 V2000
    1.4289    0.8250    0.0000 C   0  0  0  0  0  0  0  0  0  0  0  0
    0.7145    1.2375    0.0000 O   0  0  0  0  0  0  0  0  0  0  0  0
    0.0000    0.8250    0.0000 C   0  0  0  0  0  0  0  0  0  0  0  0
   -0.7145    1.2375    0.0000 C   0  0  0  0  0  0  0  0  0  0  0  0
   -1.4289    0.8250    0.0000 C   0  0  0  0  0  0  0  0  0  0  0  0
   -1.4289   -0.0000    0.0000 C   0  0  0  0  0  0  0  0  0  0  0  0
   -2.1434   -0.4125    0.0000 C   0  0  0  0  0  0  0  0  0  0  0  0
   -2.1434   -1.2375    0.0000 C   0  0  0  0  0  0  0  0  0  0  0  0
   -2.8579   -1.6500    0.0000 C   0  0  0  0  0  0  0  0  0  0  0  0
   -3.5724   -1.2375    0.0000 C   0  0  0  0  0  0  0  0  0  0  0  0
   -4.2868   -1.6500    0.0000 C   0  0  0  0  0  0  0  0  0  0  0  0
   -4.2868   -2.4750    0.0000 O   0  0  0  0  0  0  0  0  0  0  0  0
   -5.0013   -1.2375    0.0000 N   0  0  0  0  0  0  0  0  0  0  0  0
   -5.7158   -1.6500    0.0000 C   0  0  0  0  0  0  0  0  0  0  0  0
   -6.4302   -1.2375    0.0000 C   0  0  0  0  0  0  0  0  0  0  0  0
   -7.1447   -0.8250    0.0000 C   0  0  0  0  0  0  0  0  0  0  0  0
   -6.8427   -1.9520    0.0000 C   0  0  0  0  0  0  0  0  0  0  0  0
   -6.0177   -0.5230    0.0000 C   0  0  0  0  0  0  0  0  0  0  0  0
   -3.5724   -0.4125    0.0000 C   0  0  0  0  0  0  0  0  0  0  0  0
   -2.8579   -0.0000    0.0000 C   0  0  0  0  0  0  0  0  0  0  0  0
   -2.8579    0.8250    0.0000 C   0  0  0  0  0  0  0  0  0  0  0  0
   -2.1434    1.2375    0.0000 O   0  0  0  0  0  0  0  0  0  0  0  0
   -3.5724    1.2375    0.0000 O   0  0  0  0  0  0  0  0  0  0  0  0
   -0.7145   -0.4125    0.0000 C   0  0  0  0  0  0  0  0  0  0  0  0
   -0.7145   -1.2375    0.0000 C   0  0  0  0  0  0  0  0  0  0  0  0
   -1.4289   -1.6500    0.0000 O   0  0  0  0  0  0  0  0  0  0  0  0
    0.0000   -1.6500    0.0000 N   0  0  0  0  0  0  0  0  0  0  0  0
    0.7145   -1.2375    0.0000 C   0  0  0  0  0  0  0  0  0  0  0  0
    0.7145   -0.4125    0.0000 C   0  0  0  0  0  0  0  0  0  0  0  0
    1.4289    0.0000    0.0000 C   0  0  0  0  0  0  0  0  0  0  0  0
    2.1434   -0.4125    0.0000 C   0  0  0  0  0  0  0  0  0  0  0  0
    2.8579    0.0000    0.0000 C   0  0  0  0  0  0  0  0  0  0  0  0
    2.8579    0.8250    0.0000 N   0  0  0  0  0  0  0  0  0  0  0  0
    3.5724   -0.4125    0.0000 N   0  0  0  0  0  0  0  0  0  0  0  0
    3.5724   -1.2375    0.0000 C   0  0  0  0  0  0  0  0  0  0  0  0
    2.8579   -1.6500    0.0000 C   0  0  0  0  0  0  0  0  0  0  0  0
    2.1434   -1.2375    0.0000 C   0  0  0  0  0  0  0  0  0  0  0  0
    1.4289   -1.6500    0.0000 C   0  0  0  0  0  0  0  0  0  0  0  0
    0.0000   -0.0000    0.0000 N   0  0  0  0  0  0  0  0  0  0  0  0
  1  2  1  0  0  0  0
  2  3  1  0  0  0  0
  3  4  4  0  0  0  0
  4  5  4  0  0  0  0
  5  6  4  0  0  0  0
  6  7  1  0  0  0  0
  7  8  4  0  0  0  0
  8  9  4  0  0  0  0
  9 10  4  0  0  0  0
 10 11  1  0  0  0  0
 11 12  2  0  0  0  0
 11 13  1  0  0  0  0
 13 14  1  0  0  0  0
 14 15  1  0  0  0  0
 15 16  1  0  0  0  0
 15 17  1  0  0  0  0
 15 18  1  0  0  0  0
 10 19  4  0  0  0  0
 19 20  4  0  0  0  0
  7 20  4  0  0  0  0
 20 21  1  0  0  0  0
 21 22  2  0  0  0  0
 21 23  1  0  0  0  0
  6 24  4  0  0  0  0
 24 25  1  0  0  0  0
 25 26  2  0  0  0  0
 25 27  1  0  0  0  0
 27 28  1  0  0  0  0
 28 29  4  0  0  0  0
 29 30  4  0  0  0  0
 30 31  4  0  0  0  0
 31 32  4  0  0  0  0
 32 33  1  0  0  0  0
 32 34  4  0  0  0  0
 34 35  4  0  0  0  0
 35 36  4  0  0  0  0
 36 37  4  0  0  0  0
 31 37  4  0  0  0  0
 37 38  4  0  0  0  0
 28 38  4  0  0  0  0
 24 39  4  0  0  0  0
  3 39  4  0  0  0  0
M  END
>  <CdId>
358372

>  <Mol Weight>
527.5711

>  <Formula>
C29H29N5O5

>  <cmpd_chemblid>
CHEMBL2417907

>  <std_type>
Ki

>  <std_value>
90.0

>  <std_unit>
nM

>  <target_id>
CHEMBL2016

>  <target_name>
Coagulation factor IX

>  <organism>
Homo sapiens

>  <target_type>
SINGLE PROTEIN

$$$$

  Mrv0541 08052111042D          

 38 43  0  0  1  0            999 V2000
    4.7674    0.7556    0.0000 C   0  0  0  0  0  0  0  0  0  0  0  0
    3.9604    0.5840    0.0000 C   0  0  0  0  0  0  0  0  0  0  0  0
    3.7054   -0.2006    0.0000 C   0  0  0  0  0  0  0  0  0  0  0  0
    2.8985   -0.3721    0.0000 C   0  0  0  0  0  0  0  0  0  0  0  0
    2.3464    0.2410    0.0000 C   0  0  0  0  0  0  0  0  0  0  0  0
    2.6014    1.0256    0.0000 C   0  0  0  0  0  0  0  0  0  0  0  0
    3.4084    1.1971    0.0000 C   0  0  0  0  0  0  0  0  0  0  0  0
    1.9339    1.5105    0.0000 C   0  0  0  0  0  0  0  0  0  0  0  0
    1.9339    2.3355    0.0000 C   0  0  0  0  0  0  0  0  0  0  0  0
    1.2195    2.7480    0.0000 O   0  0  0  0  0  0  0  0  0  0  0  0
    2.6484    2.7480    0.0000 O   0  0  0  0  0  0  0  0  0  0  0  0
    1.2665    1.0256    0.0000 C   0  0  0  0  0  0  0  0  0  0  0  0
    1.5214    0.2410    0.0000 N   0  0  0  0  0  0  0  0  0  0  0  0
    0.9694   -0.3721    0.0000 C   0  0  0  0  0  0  0  0  0  0  0  0
    0.1624   -0.2006    0.0000 C   0  0  1  0  0  0  0  0  0  0  0  0
    0.1336   -1.0251    0.0000 N   0  0  0  0  0  0  0  0  0  0  0  0
    0.8333   -1.4623    0.0000 C   0  0  0  0  0  0  0  0  0  0  0  0
    1.5617   -1.0750    0.0000 O   0  0  0  0  0  0  0  0  0  0  0  0
    0.8045   -2.2868    0.0000 C   0  0  0  0  0  0  0  0  0  0  0  0
    1.5041   -2.7240    0.0000 C   0  0  0  0  0  0  0  0  0  0  0  0
    1.4753   -3.5485    0.0000 C   0  0  0  0  0  0  0  0  0  0  0  0
    0.7469   -3.9358    0.0000 C   0  0  0  0  0  0  0  0  0  0  0  0
    0.7181   -4.7603    0.0000 N   0  0  0  0  0  0  0  0  0  0  0  0
    1.3682   -5.2682    0.0000 C   0  0  0  0  0  0  0  0  0  0  0  0
    1.0861   -6.0434    0.0000 N   0  0  0  0  0  0  0  0  0  0  0  0
    0.2616   -6.0146    0.0000 N   0  0  0  0  0  0  0  0  0  0  0  0
    0.0342   -5.2216    0.0000 C   0  0  0  0  0  0  0  0  0  0  0  0
    0.0473   -3.4986    0.0000 C   0  0  0  0  0  0  0  0  0  0  0  0
    0.0761   -2.6741    0.0000 C   0  0  0  0  0  0  0  0  0  0  0  0
   -0.6236   -2.2369    0.0000 Cl  0  0  0  0  0  0  0  0  0  0  0  0
   -0.6545   -0.3154    0.0000 C   0  0  0  0  0  0  0  0  0  0  0  0
   -0.9636   -1.0803    0.0000 C   0  0  0  0  0  0  0  0  0  0  0  0
   -1.7806   -1.1952    0.0000 C   0  0  0  0  0  0  0  0  0  0  0  0
   -2.2885   -0.5450    0.0000 C   0  0  0  0  0  0  0  0  0  0  0  0
   -1.9794    0.2199    0.0000 C   0  0  0  0  0  0  0  0  0  0  0  0
   -1.1625    0.3347    0.0000 C   0  0  0  0  0  0  0  0  0  0  0  0
   -0.0925    0.5840    0.0000 C   0  0  0  0  0  0  0  0  0  0  0  0
    0.4595    1.1971    0.0000 C   0  0  0  0  0  0  0  0  0  0  0  0
  1  2  1  0  0  0  0
  2  3  4  0  0  0  0
  3  4  4  0  0  0  0
  4  5  4  0  0  0  0
  5  6  4  0  0  0  0
  6  7  4  0  0  0  0
  2  7  4  0  0  0  0
  6  8  4  0  0  0  0
  8  9  1  0  0  0  0
  9 10  2  0  0  0  0
  9 11  1  0  0  0  0
  8 12  4  0  0  0  0
 12 13  4  0  0  0  0
  5 13  4  0  0  0  0
 13 14  1  0  0  0  0
 14 15  1  0  0  0  0
 15 16  1  6  0  0  0
 16 17  1  0  0  0  0
 17 18  2  0  0  0  0
 17 19  1  0  0  0  0
 19 20  4  0  0  0  0
 20 21  4  0  0  0  0
 21 22  4  0  0  0  0
 22 23  1  0  0  0  0
 23 24  4  0  0  0  0
 24 25  4  0  0  0  0
 25 26  4  0  0  0  0
 26 27  4  0  0  0  0
 23 27  4  0  0  0  0
 22 28  4  0  0  0  0
 28 29  4  0  0  0  0
 19 29  4  0  0  0  0
 29 30  1  0  0  0  0
 15 31  1  1  0  0  0
 31 32  4  0  0  0  0
 32 33  4  0  0  0  0
 33 34  4  0  0  0  0
 34 35  4  0  0  0  0
 35 36  4  0  0  0  0
 31 36  4  0  0  0  0
 15 37  1  0  0  0  0
 37 38  1  0  0  0  0
 12 38  1  0  0  0  0
M  END
>  <CdId>
358374

>  <Mol Weight>
525.986

>  <Formula>
C29H24ClN5O3

>  <cmpd_chemblid>
CHEMBL3629111

>  <std_type>
Ki

>  <std_value>
0.6

>  <std_unit>
nM

>  <target_id>
CHEMBL2016

>  <target_name>
Coagulation factor IX

>  <organism>
Homo sapiens

>  <target_type>
SINGLE PROTEIN

$$$$

  Mrv0541 08052111042D          

 39 43  0  0  1  0            999 V2000
    3.9849    3.9849    0.0000 C   0  0  0  0  0  0  0  0  0  0  0  0
    4.3974    3.2704    0.0000 C   0  0  2  0  0  0  0  0  0  0  0  0
    5.2224    3.2704    0.0000 C   0  0  0  0  0  0  0  0  0  0  0  0
    5.6349    2.5559    0.0000 C   0  0  0  0  0  0  0  0  0  0  0  0
    6.4599    2.5559    0.0000 C   0  0  0  0  0  0  0  0  0  0  0  0
    6.8724    1.8414    0.0000 C   0  0  2  0  0  0  0  0  0  0  0  0
    7.6974    1.8414    0.0000 N   0  0  0  0  0  0  0  0  0  0  0  0
    8.1099    2.5559    0.0000 C   0  0  0  0  0  0  0  0  0  0  0  0
    8.9349    2.5559    0.0000 C   0  0  0  0  0  0  0  0  0  0  0  0
    9.3474    1.8414    0.0000 C   0  0  0  0  0  0  0  0  0  0  0  0
   10.1724    1.8414    0.0000 C   0  0  0  0  0  0  0  0  0  0  0  0
   10.5849    2.5559    0.0000 C   0  0  0  0  0  0  0  0  0  0  0  0
   10.1724    3.2704    0.0000 F   0  0  0  0  0  0  0  0  0  0  0  0
   11.4099    2.5559    0.0000 C   0  0  0  0  0  0  0  0  0  0  0  0
   11.8224    1.8414    0.0000 C   0  0  0  0  0  0  0  0  0  0  0  0
   11.4099    1.1270    0.0000 C   0  0  0  0  0  0  0  0  0  0  0  0
   11.8224    0.4125    0.0000 Cl  0  0  0  0  0  0  0  0  0  0  0  0
   10.5849    1.1270    0.0000 C   0  0  0  0  0  0  0  0  0  0  0  0
   10.1724    0.4125    0.0000 F   0  0  0  0  0  0  0  0  0  0  0  0
    8.9349    1.1270    0.0000 C   0  0  0  0  0  0  0  0  0  0  0  0
    8.1099    1.1270    0.0000 C   0  0  0  0  0  0  0  0  0  0  0  0
    7.6974    0.4125    0.0000 O   0  0  0  0  0  0  0  0  0  0  0  0
    6.4599    1.1270    0.0000 C   0  0  0  0  0  0  0  0  0  0  0  0
    5.6349    1.1270    0.0000 C   0  0  0  0  0  0  0  0  0  0  0  0
    5.2224    0.4125    0.0000 C   0  0  0  0  0  0  0  0  0  0  0  0
    5.6349   -0.3020    0.0000 C   0  0  0  0  0  0  0  0  0  0  0  0
    6.4599   -0.3020    0.0000 C   0  0  0  0  0  0  0  0  0  0  0  0
    6.8724    0.4125    0.0000 N   0  0  0  0  0  0  0  0  0  0  0  0
    4.3974    0.4125    0.0000 C   0  0  0  0  0  0  0  0  0  0  0  0
    3.9849   -0.3020    0.0000 C   0  0  0  0  0  0  0  0  0  0  0  0
    3.1599   -0.3020    0.0000 C   0  0  0  0  0  0  0  0  0  0  0  0
    2.7474   -1.0164    0.0000 C   0  0  0  0  0  0  0  0  0  0  0  0
    3.1599   -1.7309    0.0000 O   0  0  0  0  0  0  0  0  0  0  0  0
    2.7474    0.4125    0.0000 C   0  0  0  0  0  0  0  0  0  0  0  0
    3.1599    1.1270    0.0000 C   0  0  0  0  0  0  0  0  0  0  0  0
    3.9849    1.1270    0.0000 C   0  0  0  0  0  0  0  0  0  0  0  0
    4.3974    1.8414    0.0000 N   0  0  0  0  0  0  0  0  0  0  0  0
    3.9849    2.5559    0.0000 C   0  0  0  0  0  0  0  0  0  0  0  0
    3.1599    2.5559    0.0000 O   0  0  0  0  0  0  0  0  0  0  0  0
  2  1  1  6  0  0  0
  2  3  1  0  0  0  0
  3  4  1  0  0  0  0
  4  5  1  0  0  0  0
  5  6  1  0  0  0  0
  6  7  1  6  0  0  0
  7  8  1  0  0  0  0
  8  9  1  0  0  0  0
  9 10  1  0  0  0  0
 10 11  1  0  0  0  0
 11 12  4  0  0  0  0
 12 13  1  0  0  0  0
 12 14  4  0  0  0  0
 14 15  4  0  0  0  0
 15 16  4  0  0  0  0
 16 17  1  0  0  0  0
 16 18  4  0  0  0  0
 11 18  4  0  0  0  0
 18 19  1  0  0  0  0
 10 20  2  0  0  0  0
 20 21  1  0  0  0  0
  7 21  1  0  0  0  0
 21 22  2  0  0  0  0
  6 23  1  0  0  0  0
 23 24  4  0  0  0  0
 24 25  4  0  0  0  0
 25 26  4  0  0  0  0
 26 27  4  0  0  0  0
 27 28  4  0  0  0  0
 23 28  4  0  0  0  0
 25 29  1  0  0  0  0
 29 30  4  0  0  0  0
 30 31  4  0  0  0  0
 31 32  1  0  0  0  0
 32 33  1  0  0  0  0
 31 34  4  0  0  0  0
 34 35  4  0  0  0  0
 35 36  4  0  0  0  0
 29 36  4  0  0  0  0
 36 37  1  0  0  0  0
 37 38  1  0  0  0  0
  2 38  1  0  0  0  0
 38 39  2  0  0  0  0
M  END
>  <CdId>
358375

>  <Mol Weight>
552.011

>  <Formula>
C30H28ClF2N3O3

>  <cmpd_chemblid>
CHEMBL4112150

>  <std_type>
Ki

>  <std_value>
90.09

>  <std_unit>
nM

>  <target_id>
CHEMBL2016

>  <target_name>
Coagulation factor IX

>  <organism>
Homo sapiens

>  <target_type>
SINGLE PROTEIN

$$$$

  Mrv0541 08052111042D          

 38 42  0  0  0  0            999 V2000
    4.2010   -5.1401    0.0000 N   0  0  0  0  0  0  0  0  0  0  0  0
    3.3760   -5.1401    0.0000 C   0  0  0  0  0  0  0  0  0  0  0  0
    2.9635   -4.4256    0.0000 N   0  0  0  0  0  0  0  0  0  0  0  0
    2.9635   -5.8546    0.0000 C   0  0  0  0  0  0  0  0  0  0  0  0
    3.3760   -6.5690    0.0000 C   0  0  0  0  0  0  0  0  0  0  0  0
    2.9635   -7.2835    0.0000 C   0  0  0  0  0  0  0  0  0  0  0  0
    2.1385   -7.2835    0.0000 C   0  0  0  0  0  0  0  0  0  0  0  0
    1.7260   -6.5690    0.0000 C   0  0  0  0  0  0  0  0  0  0  0  0
    0.9010   -6.5690    0.0000 N   0  0  0  0  0  0  0  0  0  0  0  0
    0.4161   -7.2365    0.0000 N   0  0  0  0  0  0  0  0  0  0  0  0
   -0.3686   -6.9815    0.0000 C   0  0  0  0  0  0  0  0  0  0  0  0
   -1.0360   -7.4664    0.0000 C   0  0  0  0  0  0  0  0  0  0  0  0
   -1.7034   -7.9514    0.0000 F   0  0  0  0  0  0  0  0  0  0  0  0
   -1.5209   -6.7990    0.0000 F   0  0  0  0  0  0  0  0  0  0  0  0
   -0.5511   -8.1339    0.0000 F   0  0  0  0  0  0  0  0  0  0  0  0
   -0.3686   -6.1565    0.0000 C   0  0  0  0  0  0  0  0  0  0  0  0
    0.4161   -5.9016    0.0000 C   0  0  0  0  0  0  0  0  0  0  0  0
    0.6710   -5.1170    0.0000 C   0  0  0  0  0  0  0  0  0  0  0  0
    1.4780   -4.9454    0.0000 O   0  0  0  0  0  0  0  0  0  0  0  0
    0.1190   -4.5039    0.0000 N   0  0  0  0  0  0  0  0  0  0  0  0
    0.3739   -3.7192    0.0000 C   0  0  0  0  0  0  0  0  0  0  0  0
   -0.1781   -3.1062    0.0000 C   0  0  0  0  0  0  0  0  0  0  0  0
    0.0768   -2.3215    0.0000 C   0  0  0  0  0  0  0  0  0  0  0  0
    0.8838   -2.1500    0.0000 C   0  0  0  0  0  0  0  0  0  0  0  0
    1.1387   -1.3654    0.0000 N   0  0  0  0  0  0  0  0  0  0  0  0
    0.6538   -0.6979    0.0000 C   0  0  0  0  0  0  0  0  0  0  0  0
    1.1387   -0.0305    0.0000 N   0  0  0  0  0  0  0  0  0  0  0  0
    1.9233   -0.2854    0.0000 C   0  0  0  0  0  0  0  0  0  0  0  0
    2.6378    0.1271    0.0000 C   0  0  0  0  0  0  0  0  0  0  0  0
    3.3523   -0.2854    0.0000 C   0  0  0  0  0  0  0  0  0  0  0  0
    3.3523   -1.1104    0.0000 C   0  0  0  0  0  0  0  0  0  0  0  0
    4.0668   -1.5229    0.0000 Cl  0  0  0  0  0  0  0  0  0  0  0  0
    2.6378   -1.5229    0.0000 C   0  0  0  0  0  0  0  0  0  0  0  0
    1.9233   -1.1104    0.0000 C   0  0  0  0  0  0  0  0  0  0  0  0
    1.4358   -2.7631    0.0000 C   0  0  0  0  0  0  0  0  0  0  0  0
    1.1809   -3.5477    0.0000 C   0  0  0  0  0  0  0  0  0  0  0  0
    1.7329   -4.1608    0.0000 F   0  0  0  0  0  0  0  0  0  0  0  0
    2.1385   -5.8546    0.0000 C   0  0  0  0  0  0  0  0  0  0  0  0
  1  2  2  0  0  0  0
  2  3  1  0  0  0  0
  2  4  1  0  0  0  0
  4  5  4  0  0  0  0
  5  6  4  0  0  0  0
  6  7  4  0  0  0  0
  7  8  4  0  0  0  0
  8  9  1  0  0  0  0
  9 10  4  0  0  0  0
 10 11  4  0  0  0  0
 11 12  1  0  0  0  0
 12 13  1  0  0  0  0
 12 14  1  0  0  0  0
 12 15  1  0  0  0  0
 11 16  4  0  0  0  0
 16 17  4  0  0  0  0
  9 17  4  0  0  0  0
 17 18  1  0  0  0  0
 18 19  2  0  0  0  0
 18 20  1  0  0  0  0
 20 21  1  0  0  0  0
 21 22  4  0  0  0  0
 22 23  4  0  0  0  0
 23 24  4  0  0  0  0
 24 25  1  0  0  0  0
 25 26  4  0  0  0  0
 26 27  4  0  0  0  0
 27 28  4  0  0  0  0
 28 29  4  0  0  0  0
 29 30  4  0  0  0  0
 30 31  4  0  0  0  0
 31 32  1  0  0  0  0
 31 33  4  0  0  0  0
 33 34  4  0  0  0  0
 28 34  4  0  0  0  0
 25 34  4  0  0  0  0
 24 35  4  0  0  0  0
 35 36  4  0  0  0  0
 21 36  4  0  0  0  0
 36 37  1  0  0  0  0
  8 38  4  0  0  0  0
  4 38  4  0  0  0  0
M  END
>  <CdId>
358376

>  <Mol Weight>
541.887

>  <Formula>
C25H16ClF4N7O

>  <cmpd_chemblid>
CHEMBL425538

>  <std_type>
Ki

>  <std_value>
5.1

>  <std_unit>
nM

>  <target_id>
CHEMBL2016

>  <target_name>
Coagulation factor IX

>  <organism>
Homo sapiens

>  <target_type>
SINGLE PROTEIN

$$$$

  Mrv0541 08052111042D          

 41 47  0  0  1  0            999 V2000
    4.7674    0.7556    0.0000 C   0  0  0  0  0  0  0  0  0  0  0  0
    3.9604    0.5840    0.0000 C   0  0  0  0  0  0  0  0  0  0  0  0
    3.7054   -0.2006    0.0000 C   0  0  0  0  0  0  0  0  0  0  0  0
    2.8985   -0.3721    0.0000 C   0  0  0  0  0  0  0  0  0  0  0  0
    2.3464    0.2410    0.0000 C   0  0  0  0  0  0  0  0  0  0  0  0
    2.6014    1.0256    0.0000 C   0  0  0  0  0  0  0  0  0  0  0  0
    3.4084    1.1971    0.0000 C   0  0  0  0  0  0  0  0  0  0  0  0
    1.9339    1.5105    0.0000 C   0  0  0  0  0  0  0  0  0  0  0  0
    1.9339    2.3355    0.0000 C   0  0  0  0  0  0  0  0  0  0  0  0
    1.2665    2.8204    0.0000 N   0  0  0  0  0  0  0  0  0  0  0  0
    1.5214    3.6051    0.0000 N   0  0  0  0  0  0  0  0  0  0  0  0
    2.3464    3.6051    0.0000 N   0  0  0  0  0  0  0  0  0  0  0  0
    2.6014    2.8204    0.0000 N   0  0  0  0  0  0  0  0  0  0  0  0
    1.2665    1.0256    0.0000 C   0  0  0  0  0  0  0  0  0  0  0  0
    1.5214    0.2410    0.0000 N   0  0  0  0  0  0  0  0  0  0  0  0
    0.9694   -0.3721    0.0000 C   0  0  0  0  0  0  0  0  0  0  0  0
    0.1624   -0.2006    0.0000 C   0  0  1  0  0  0  0  0  0  0  0  0
    0.1336   -1.0251    0.0000 N   0  0  0  0  0  0  0  0  0  0  0  0
    0.8333   -1.4623    0.0000 C   0  0  0  0  0  0  0  0  0  0  0  0
    1.5617   -1.0750    0.0000 O   0  0  0  0  0  0  0  0  0  0  0  0
    0.8045   -2.2868    0.0000 C   0  0  0  0  0  0  0  0  0  0  0  0
    1.5041   -2.7240    0.0000 C   0  0  0  0  0  0  0  0  0  0  0  0
    2.2326   -2.3366    0.0000 Cl  0  0  0  0  0  0  0  0  0  0  0  0
    1.4753   -3.5485    0.0000 C   0  0  0  0  0  0  0  0  0  0  0  0
    0.7469   -3.9358    0.0000 C   0  0  0  0  0  0  0  0  0  0  0  0
    0.7181   -4.7603    0.0000 N   0  0  0  0  0  0  0  0  0  0  0  0
    1.3682   -5.2682    0.0000 C   0  0  0  0  0  0  0  0  0  0  0  0
    1.0861   -6.0434    0.0000 N   0  0  0  0  0  0  0  0  0  0  0  0
    0.2616   -6.0146    0.0000 N   0  0  0  0  0  0  0  0  0  0  0  0
    0.0342   -5.2216    0.0000 C   0  0  0  0  0  0  0  0  0  0  0  0
    0.0473   -3.4986    0.0000 C   0  0  0  0  0  0  0  0  0  0  0  0
    0.0761   -2.6741    0.0000 C   0  0  0  0  0  0  0  0  0  0  0  0
   -0.6236   -2.2369    0.0000 Cl  0  0  0  0  0  0  0  0  0  0  0  0
   -0.6545   -0.3154    0.0000 C   0  0  0  0  0  0  0  0  0  0  0  0
   -0.9636   -1.0803    0.0000 C   0  0  0  0  0  0  0  0  0  0  0  0
   -1.7806   -1.1952    0.0000 C   0  0  0  0  0  0  0  0  0  0  0  0
   -2.2885   -0.5450    0.0000 C   0  0  0  0  0  0  0  0  0  0  0  0
   -1.9794    0.2199    0.0000 C   0  0  0  0  0  0  0  0  0  0  0  0
   -1.1625    0.3347    0.0000 C   0  0  0  0  0  0  0  0  0  0  0  0
   -0.0925    0.5840    0.0000 C   0  0  0  0  0  0  0  0  0  0  0  0
    0.4595    1.1971    0.0000 C   0  0  0  0  0  0  0  0  0  0  0  0
  1  2  1  0  0  0  0
  2  3  4  0  0  0  0
  3  4  4  0  0  0  0
  4  5  4  0  0  0  0
  5  6  4  0  0  0  0
  6  7  4  0  0  0  0
  2  7  4  0  0  0  0
  6  8  4  0  0  0  0
  8  9  1  0  0  0  0
  9 10  4  0  0  0  0
 10 11  4  0  0  0  0
 11 12  4  0  0  0  0
 12 13  4  0  0  0  0
  9 13  4  0  0  0  0
  8 14  4  0  0  0  0
 14 15  4  0  0  0  0
  5 15  4  0  0  0  0
 15 16  1  0  0  0  0
 16 17  1  0  0  0  0
 17 18  1  6  0  0  0
 18 19  1  0  0  0  0
 19 20  2  0  0  0  0
 19 21  1  0  0  0  0
 21 22  4  0  0  0  0
 22 23  1  0  0  0  0
 22 24  4  0  0  0  0
 24 25  4  0  0  0  0
 25 26  1  0  0  0  0
 26 27  4  0  0  0  0
 27 28  4  0  0  0  0
 28 29  4  0  0  0  0
 29 30  4  0  0  0  0
 26 30  4  0  0  0  0
 25 31  4  0  0  0  0
 31 32  4  0  0  0  0
 21 32  4  0  0  0  0
 32 33  1  0  0  0  0
 17 34  1  1  0  0  0
 34 35  4  0  0  0  0
 35 36  4  0  0  0  0
 36 37  4  0  0  0  0
 37 38  4  0  0  0  0
 38 39  4  0  0  0  0
 34 39  4  0  0  0  0
 17 40  1  0  0  0  0
 40 41  1  0  0  0  0
 14 41  1  0  0  0  0
M  STY  1   1 DAT
M  SAL   1  1  12
M  SDT   1 MRV_IMPLICIT_H                                        
M  SDD   1     0.0000    0.0000    DR    ALL  0       0  
M  SED   1 IMPL_H1
M  END
>  <CdId>
358377

>  <Mol Weight>
584.459

>  <Formula>
C29H23Cl2N9O

>  <cmpd_chemblid>
CHEMBL3628965

>  <std_type>
Ki

>  <std_value>
2.4

>  <std_unit>
nM

>  <target_id>
CHEMBL2016

>  <target_name>
Coagulation factor IX

>  <organism>
Homo sapiens

>  <target_type>
SINGLE PROTEIN

$$$$

  Mrv0541 08052111042D          

 37 40  0  0  0  0            999 V2000
   -5.7158   -2.4750    0.0000 C   0  0  0  0  0  0  0  0  0  0  0  0
   -5.0013   -2.0625    0.0000 C   0  0  0  0  0  0  0  0  0  0  0  0
   -5.0013   -1.2375    0.0000 C   0  0  0  0  0  0  0  0  0  0  0  0
   -4.2868   -2.4750    0.0000 C   0  0  0  0  0  0  0  0  0  0  0  0
   -3.5724   -2.0625    0.0000 N   0  0  0  0  0  0  0  0  0  0  0  0
   -2.8579   -2.4750    0.0000 C   0  0  0  0  0  0  0  0  0  0  0  0
   -2.1434   -2.0625    0.0000 C   0  0  0  0  0  0  0  0  0  0  0  0
   -2.1434   -1.2375    0.0000 C   0  0  0  0  0  0  0  0  0  0  0  0
   -1.4289   -0.8250    0.0000 C   0  0  0  0  0  0  0  0  0  0  0  0
   -0.7145   -1.2375    0.0000 C   0  0  0  0  0  0  0  0  0  0  0  0
   -0.7145   -2.0625    0.0000 C   0  0  0  0  0  0  0  0  0  0  0  0
   -1.4289   -2.4750    0.0000 C   0  0  0  0  0  0  0  0  0  0  0  0
   -1.4289   -3.3000    0.0000 N   0  0  0  0  0  0  0  0  0  0  0  0
   -0.7145   -3.7125    0.0000 C   0  0  0  0  0  0  0  0  0  0  0  0
   -0.7145   -4.5375    0.0000 O   0  0  0  0  0  0  0  0  0  0  0  0
    0.0000   -3.3000    0.0000 O   0  0  0  0  0  0  0  0  0  0  0  0
    0.7145   -3.7125    0.0000 C   0  0  0  0  0  0  0  0  0  0  0  0
    1.4289   -3.3000    0.0000 C   0  0  0  0  0  0  0  0  0  0  0  0
    2.1434   -3.7125    0.0000 O   0  0  0  0  0  0  0  0  0  0  0  0
    2.8579   -3.3000    0.0000 C   0  0  0  0  0  0  0  0  0  0  0  0
    2.8579   -2.4750    0.0000 C   0  0  0  0  0  0  0  0  0  0  0  0
    3.5724   -2.0625    0.0000 C   0  0  0  0  0  0  0  0  0  0  0  0
    4.2868   -2.4750    0.0000 C   0  0  0  0  0  0  0  0  0  0  0  0
    4.2868   -3.3000    0.0000 C   0  0  0  0  0  0  0  0  0  0  0  0
    4.8999   -3.8520    0.0000 S   0  0  0  0  0  0  0  0  0  0  0  0
    4.5644   -4.6057    0.0000 C   0  0  0  0  0  0  0  0  0  0  0  0
    4.9769   -5.3202    0.0000 C   0  0  0  0  0  0  0  0  0  0  0  0
    5.8019   -5.3202    0.0000 N   0  0  0  0  0  0  0  0  0  0  0  0
    4.5644   -6.0346    0.0000 N   0  0  0  0  0  0  0  0  0  0  0  0
    3.7439   -4.5195    0.0000 C   0  0  0  0  0  0  0  0  0  0  0  0
    3.5724   -3.7125    0.0000 C   0  0  0  0  0  0  0  0  0  0  0  0
    1.4289   -2.4750    0.0000 C   0  0  0  0  0  0  0  0  0  0  0  0
    0.7145   -2.0625    0.0000 C   0  0  0  0  0  0  0  0  0  0  0  0
    0.7145   -1.2375    0.0000 C   0  0  0  0  0  0  0  0  0  0  0  0
    1.4289   -0.8250    0.0000 C   0  0  0  0  0  0  0  0  0  0  0  0
    2.1434   -1.2375    0.0000 C   0  0  0  0  0  0  0  0  0  0  0  0
    2.1434   -2.0625    0.0000 C   0  0  0  0  0  0  0  0  0  0  0  0
  1  2  1  0  0  0  0
  2  3  1  0  0  0  0
  2  4  1  0  0  0  0
  4  5  1  0  0  0  0
  5  6  1  0  0  0  0
  6  7  1  0  0  0  0
  7  8  4  0  0  0  0
  8  9  4  0  0  0  0
  9 10  4  0  0  0  0
 10 11  4  0  0  0  0
 11 12  4  0  0  0  0
  7 12  4  0  0  0  0
 12 13  1  0  0  0  0
 13 14  1  0  0  0  0
 14 15  2  0  0  0  0
 14 16  1  0  0  0  0
 16 17  1  0  0  0  0
 17 18  1  0  0  0  0
 18 19  1  0  0  0  0
 19 20  1  0  0  0  0
 20 21  4  0  0  0  0
 21 22  4  0  0  0  0
 22 23  4  0  0  0  0
 23 24  4  0  0  0  0
 24 25  4  0  0  0  0
 25 26  4  0  0  0  0
 26 27  1  0  0  0  0
 27 28  2  0  0  0  0
 27 29  1  0  0  0  0
 26 30  4  0  0  0  0
 30 31  4  0  0  0  0
 20 31  4  0  0  0  0
 24 31  4  0  0  0  0
 18 32  1  0  0  0  0
 32 33  4  0  0  0  0
 33 34  4  0  0  0  0
 34 35  4  0  0  0  0
 35 36  4  0  0  0  0
 36 37  4  0  0  0  0
 32 37  4  0  0  0  0
M  END
>  <CdId>
358378

>  <Mol Weight>
516.654

>  <Formula>
C29H32N4O3S

>  <cmpd_chemblid>
CHEMBL597557

>  <std_type>
Ki

>  <std_value>
2.0

>  <std_unit>
nM

>  <target_id>
CHEMBL2016

>  <target_name>
Coagulation factor IX

>  <organism>
Homo sapiens

>  <target_type>
SINGLE PROTEIN

$$$$

  Mrv0541 08052111042D          

 24 27  0  0  0  0            999 V2000
    4.7812    1.9354    0.0000 N   0  0  0  0  0  0  0  0  0  0  0  0
    4.0668    2.3479    0.0000 C   0  0  0  0  0  0  0  0  0  0  0  0
    4.0668    3.1729    0.0000 N   0  0  0  0  0  0  0  0  0  0  0  0
    3.3523    1.9354    0.0000 C   0  0  0  0  0  0  0  0  0  0  0  0
    3.3523    1.1104    0.0000 C   0  0  0  0  0  0  0  0  0  0  0  0
    2.6378    0.6979    0.0000 C   0  0  0  0  0  0  0  0  0  0  0  0
    1.9233    1.1104    0.0000 C   0  0  0  0  0  0  0  0  0  0  0  0
    1.1387    0.8555    0.0000 N   0  0  0  0  0  0  0  0  0  0  0  0
    0.6538    1.5229    0.0000 C   0  0  0  0  0  0  0  0  0  0  0  0
   -0.1712    1.5229    0.0000 C   0  0  0  0  0  0  0  0  0  0  0  0
   -0.6561    0.8555    0.0000 N   0  0  0  0  0  0  0  0  0  0  0  0
   -1.4407    1.1104    0.0000 N   0  0  0  0  0  0  0  0  0  0  0  0
   -1.4407    1.9354    0.0000 C   0  0  0  0  0  0  0  0  0  0  0  0
   -2.1082    2.4204    0.0000 C   0  0  0  0  0  0  0  0  0  0  0  0
   -2.8619    2.0848    0.0000 C   0  0  0  0  0  0  0  0  0  0  0  0
   -3.5293    2.5697    0.0000 C   0  0  0  0  0  0  0  0  0  0  0  0
   -3.4431    3.3902    0.0000 C   0  0  0  0  0  0  0  0  0  0  0  0
   -2.6894    3.7258    0.0000 C   0  0  0  0  0  0  0  0  0  0  0  0
   -2.0219    3.2408    0.0000 C   0  0  0  0  0  0  0  0  0  0  0  0
   -0.6561    2.1904    0.0000 C   0  0  0  0  0  0  0  0  0  0  0  0
   -0.4012    2.9750    0.0000 O   0  0  0  0  0  0  0  0  0  0  0  0
    1.1387    2.1904    0.0000 N   0  0  0  0  0  0  0  0  0  0  0  0
    1.9233    1.9354    0.0000 C   0  0  0  0  0  0  0  0  0  0  0  0
    2.6378    2.3479    0.0000 C   0  0  0  0  0  0  0  0  0  0  0  0
  1  2  2  0  0  0  0
  2  3  1  0  0  0  0
  2  4  1  0  0  0  0
  4  5  4  0  0  0  0
  5  6  4  0  0  0  0
  6  7  4  0  0  0  0
  7  8  4  0  0  0  0
  8  9  4  0  0  0  0
  9 10  1  0  0  0  0
 10 11  4  0  0  0  0
 11 12  4  0  0  0  0
 12 13  4  0  0  0  0
 13 14  1  0  0  0  0
 14 15  4  0  0  0  0
 15 16  4  0  0  0  0
 16 17  4  0  0  0  0
 17 18  4  0  0  0  0
 18 19  4  0  0  0  0
 14 19  4  0  0  0  0
 13 20  4  0  0  0  0
 10 20  4  0  0  0  0
 20 21  1  0  0  0  0
  9 22  4  0  0  0  0
 22 23  4  0  0  0  0
  7 23  4  0  0  0  0
 23 24  4  0  0  0  0
  4 24  4  0  0  0  0
M  STY  2   1 DAT   2 DAT
M  SAL   1  1   8
M  SDT   1 MRV_IMPLICIT_H                                        
M  SDD   1     0.0000    0.0000    DR    ALL  0       0  
M  SED   1 IMPL_H1
M  SAL   2  1  12
M  SDT   2 MRV_IMPLICIT_H                                        
M  SDD   2     0.0000    0.0000    DR    ALL  0       0  
M  SED   2 IMPL_H1
M  END
>  <CdId>
358380

>  <Mol Weight>
318.3327

>  <Formula>
C17H14N6O

>  <cmpd_chemblid>
CHEMBL204997

>  <std_type>
Ki

>  <std_value>
50.0

>  <std_unit>
nM

>  <target_id>
CHEMBL2016

>  <target_name>
Coagulation factor IX

>  <organism>
Homo sapiens

>  <target_type>
SINGLE PROTEIN

$$$$

  Mrv0541 08052111042D          

 38 41  0  0  1  0            999 V2000
   -5.8466    4.6102    0.0000 C   0  0  0  0  0  0  0  0  0  0  0  0
   -5.6751    3.8032    0.0000 N   0  0  0  0  0  0  0  0  0  0  0  0
   -6.2882    3.2512    0.0000 C   0  0  0  0  0  0  0  0  0  0  0  0
   -4.8904    3.5483    0.0000 C   0  0  0  0  0  0  0  0  0  0  0  0
   -4.2230    4.0332    0.0000 N   0  0  0  0  0  0  0  0  0  0  0  0
   -3.5556    3.5483    0.0000 C   0  0  0  0  0  0  0  0  0  0  0  0
   -3.8105    2.7637    0.0000 C   0  0  0  0  0  0  0  0  0  0  0  0
   -3.3256    2.0962    0.0000 S   0  0  0  0  0  0  0  0  0  0  0  0
   -3.9930    1.6113    0.0000 O   0  0  0  0  0  0  0  0  0  0  0  0
   -2.6581    2.5812    0.0000 O   0  0  0  0  0  0  0  0  0  0  0  0
   -2.8407    1.4288    0.0000 N   0  0  0  0  0  0  0  0  0  0  0  0
   -2.0202    1.5150    0.0000 C   0  0  1  0  0  0  0  0  0  0  0  0
   -1.6077    2.2295    0.0000 C   0  0  0  0  0  0  0  0  0  0  0  0
   -0.8007    2.0580    0.0000 C   0  0  0  0  0  0  0  0  0  0  0  0
   -0.7145    1.2375    0.0000 N   0  0  0  0  0  0  0  0  0  0  0  0
    0.0000    0.8250    0.0000 C   0  0  2  0  0  0  0  0  0  0  0  0
    0.0000    0.0000    0.0000 C   0  0  0  0  0  0  0  0  0  0  0  0
    0.7145   -0.4125    0.0000 C   0  0  0  0  0  0  0  0  0  0  0  0
    1.4289    0.0000    0.0000 C   0  0  0  0  0  0  0  0  0  0  0  0
    2.1434   -0.4125    0.0000 C   0  0  0  0  0  0  0  0  0  0  0  0
    2.8579    0.0000    0.0000 C   0  0  0  0  0  0  0  0  0  0  0  0
    3.5724   -0.4125    0.0000 C   0  0  0  0  0  0  0  0  0  0  0  0
    3.5724   -1.2375    0.0000 N   0  0  0  0  0  0  0  0  0  0  0  0
    2.8579   -1.6500    0.0000 C   0  0  0  0  0  0  0  0  0  0  0  0
    2.8579   -2.4750    0.0000 N   0  0  0  0  0  0  0  0  0  0  0  0
    2.1434   -1.2375    0.0000 C   0  0  0  0  0  0  0  0  0  0  0  0
    1.4289   -1.6500    0.0000 C   0  0  0  0  0  0  0  0  0  0  0  0
    0.7145   -1.2375    0.0000 C   0  0  0  0  0  0  0  0  0  0  0  0
    0.0000   -1.6500    0.0000 C   0  0  0  0  0  0  0  0  0  0  0  0
   -0.7145   -2.0625    0.0000 F   0  0  0  0  0  0  0  0  0  0  0  0
   -0.4125   -0.9355    0.0000 F   0  0  0  0  0  0  0  0  0  0  0  0
    0.4125   -2.3645    0.0000 F   0  0  0  0  0  0  0  0  0  0  0  0
    0.7145    1.2375    0.0000 C   0  0  0  0  0  0  0  0  0  0  0  0
    0.7145    2.0625    0.0000 O   0  0  0  0  0  0  0  0  0  0  0  0
    1.4289    0.8250    0.0000 O   0  0  0  0  0  0  0  0  0  0  0  0
   -1.4681    0.9019    0.0000 C   0  0  0  0  0  0  0  0  0  0  0  0
   -1.6397    0.0950    0.0000 O   0  0  0  0  0  0  0  0  0  0  0  0
   -4.6355    2.7637    0.0000 S   0  0  0  0  0  0  0  0  0  0  0  0
  1  2  1  0  0  0  0
  2  3  1  0  0  0  0
  2  4  1  0  0  0  0
  4  5  4  0  0  0  0
  5  6  4  0  0  0  0
  6  7  4  0  0  0  0
  7  8  1  0  0  0  0
  8  9  2  0  0  0  0
  8 10  2  0  0  0  0
  8 11  1  0  0  0  0
 12 11  1  1  0  0  0
 12 13  1  0  0  0  0
 13 14  1  0  0  0  0
 14 15  1  0  0  0  0
 16 15  1  1  0  0  0
 16 17  1  0  0  0  0
 17 18  1  0  0  0  0
 18 19  4  0  0  0  0
 19 20  4  0  0  0  0
 20 21  4  0  0  0  0
 21 22  4  0  0  0  0
 22 23  4  0  0  0  0
 23 24  4  0  0  0  0
 24 25  1  0  0  0  0
 24 26  4  0  0  0  0
 20 26  4  0  0  0  0
 26 27  4  0  0  0  0
 27 28  4  0  0  0  0
 18 28  4  0  0  0  0
 28 29  1  0  0  0  0
 29 30  1  0  0  0  0
 29 31  1  0  0  0  0
 29 32  1  0  0  0  0
 16 33  1  0  0  0  0
 33 34  2  0  0  0  0
 33 35  1  0  0  0  0
 15 36  1  0  0  0  0
 12 36  1  0  0  0  0
 36 37  2  0  0  0  0
  7 38  4  0  0  0  0
  4 38  4  0  0  0  0
M  END
>  <CdId>
358381

>  <Mol Weight>
572.58

>  <Formula>
C22H23F3N6O5S2

>  <cmpd_chemblid>
CHEMBL3929605

>  <std_type>
Ki

>  <std_value>
35.0

>  <std_unit>
nM

>  <target_id>
CHEMBL2016

>  <target_name>
Coagulation factor IX

>  <organism>
Homo sapiens

>  <target_type>
SINGLE PROTEIN

$$$$

  Mrv0541 08052111042D          

 40 44  0  0  0  0            999 V2000
    4.2010   -5.1401    0.0000 N   0  0  0  0  0  0  0  0  0  0  0  0
    3.3760   -5.1401    0.0000 C   0  0  0  0  0  0  0  0  0  0  0  0
    2.9635   -4.4256    0.0000 N   0  0  0  0  0  0  0  0  0  0  0  0
    2.9635   -5.8546    0.0000 C   0  0  0  0  0  0  0  0  0  0  0  0
    3.3760   -6.5690    0.0000 C   0  0  0  0  0  0  0  0  0  0  0  0
    2.9635   -7.2835    0.0000 C   0  0  0  0  0  0  0  0  0  0  0  0
    2.1385   -7.2835    0.0000 C   0  0  0  0  0  0  0  0  0  0  0  0
    1.7260   -6.5690    0.0000 C   0  0  0  0  0  0  0  0  0  0  0  0
    0.9010   -6.5690    0.0000 N   0  0  0  0  0  0  0  0  0  0  0  0
    0.4161   -7.2365    0.0000 N   0  0  0  0  0  0  0  0  0  0  0  0
   -0.3686   -6.9815    0.0000 C   0  0  0  0  0  0  0  0  0  0  0  0
   -1.0360   -7.4664    0.0000 C   0  0  0  0  0  0  0  0  0  0  0  0
   -1.7034   -7.9514    0.0000 F   0  0  0  0  0  0  0  0  0  0  0  0
   -1.5209   -6.7990    0.0000 F   0  0  0  0  0  0  0  0  0  0  0  0
   -0.5511   -8.1339    0.0000 F   0  0  0  0  0  0  0  0  0  0  0  0
   -0.3686   -6.1565    0.0000 C   0  0  0  0  0  0  0  0  0  0  0  0
    0.4161   -5.9016    0.0000 C   0  0  0  0  0  0  0  0  0  0  0  0
    0.6710   -5.1170    0.0000 C   0  0  0  0  0  0  0  0  0  0  0  0
    1.4780   -4.9454    0.0000 O   0  0  0  0  0  0  0  0  0  0  0  0
    0.1190   -4.5039    0.0000 N   0  0  0  0  0  0  0  0  0  0  0  0
    0.3739   -3.7192    0.0000 C   0  0  0  0  0  0  0  0  0  0  0  0
   -0.1781   -3.1062    0.0000 C   0  0  0  0  0  0  0  0  0  0  0  0
    0.0768   -2.3215    0.0000 C   0  0  0  0  0  0  0  0  0  0  0  0
    0.8838   -2.1500    0.0000 C   0  0  0  0  0  0  0  0  0  0  0  0
    1.1387   -1.3654    0.0000 N   0  0  0  0  0  0  0  0  0  0  0  0
    0.6538   -0.6979    0.0000 C   0  0  0  0  0  0  0  0  0  0  0  0
    1.1387   -0.0305    0.0000 N   0  0  0  0  0  0  0  0  0  0  0  0
    1.9233   -0.2854    0.0000 C   0  0  0  0  0  0  0  0  0  0  0  0
    2.6378    0.1271    0.0000 C   0  0  0  0  0  0  0  0  0  0  0  0
    3.3523   -0.2854    0.0000 C   0  0  0  0  0  0  0  0  0  0  0  0
    4.0668    0.1271    0.0000 N   0  3  0  0  0  0  0  0  0  0  0  0
    4.0668    0.9521    0.0000 O   0  0  0  0  0  0  0  0  0  0  0  0
    4.7812   -0.2854    0.0000 O   0  5  0  0  0  0  0  0  0  0  0  0
    3.3523   -1.1104    0.0000 C   0  0  0  0  0  0  0  0  0  0  0  0
    2.6378   -1.5229    0.0000 C   0  0  0  0  0  0  0  0  0  0  0  0
    1.9233   -1.1104    0.0000 C   0  0  0  0  0  0  0  0  0  0  0  0
    1.4358   -2.7631    0.0000 C   0  0  0  0  0  0  0  0  0  0  0  0
    1.1809   -3.5477    0.0000 C   0  0  0  0  0  0  0  0  0  0  0  0
    1.7329   -4.1608    0.0000 F   0  0  0  0  0  0  0  0  0  0  0  0
    2.1385   -5.8546    0.0000 C   0  0  0  0  0  0  0  0  0  0  0  0
  1  2  2  0  0  0  0
  2  3  1  0  0  0  0
  2  4  1  0  0  0  0
  4  5  4  0  0  0  0
  5  6  4  0  0  0  0
  6  7  4  0  0  0  0
  7  8  4  0  0  0  0
  8  9  1  0  0  0  0
  9 10  4  0  0  0  0
 10 11  4  0  0  0  0
 11 12  1  0  0  0  0
 12 13  1  0  0  0  0
 12 14  1  0  0  0  0
 12 15  1  0  0  0  0
 11 16  4  0  0  0  0
 16 17  4  0  0  0  0
  9 17  4  0  0  0  0
 17 18  1  0  0  0  0
 18 19  2  0  0  0  0
 18 20  1  0  0  0  0
 20 21  1  0  0  0  0
 21 22  4  0  0  0  0
 22 23  4  0  0  0  0
 23 24  4  0  0  0  0
 24 25  1  0  0  0  0
 25 26  4  0  0  0  0
 26 27  4  0  0  0  0
 27 28  4  0  0  0  0
 28 29  4  0  0  0  0
 29 30  4  0  0  0  0
 30 31  1  0  0  0  0
 31 32  2  0  0  0  0
 31 33  1  0  0  0  0
 30 34  4  0  0  0  0
 34 35  4  0  0  0  0
 35 36  4  0  0  0  0
 28 36  4  0  0  0  0
 25 36  4  0  0  0  0
 24 37  4  0  0  0  0
 37 38  4  0  0  0  0
 21 38  4  0  0  0  0
 38 39  1  0  0  0  0
  8 40  4  0  0  0  0
  4 40  4  0  0  0  0
M  CHG  2  31   1  33  -1
M  END
>  <CdId>
358382

>  <Mol Weight>
552.44

>  <Formula>
C25H16F4N8O3

>  <cmpd_chemblid>
CHEMBL434521

>  <std_type>
Ki

>  <std_value>
11.0

>  <std_unit>
nM

>  <target_id>
CHEMBL2016

>  <target_name>
Coagulation factor IX

>  <organism>
Homo sapiens

>  <target_type>
SINGLE PROTEIN

$$$$

  Mrv0541 08052111042D          

 39 43  0  0  1  0            999 V2000
   -4.8011   -7.1082    0.0000 C   0  0  0  0  0  0  0  0  0  0  0  0
   -4.4656   -6.3545    0.0000 C   0  0  0  0  0  0  0  0  0  0  0  0
   -4.8781   -5.6400    0.0000 N   0  0  0  0  0  0  0  0  0  0  0  0
   -4.3260   -5.0269    0.0000 C   0  0  0  0  0  0  0  0  0  0  0  0
   -3.5724   -5.3625    0.0000 N   0  0  0  0  0  0  0  0  0  0  0  0
   -2.8579   -4.9500    0.0000 C   0  0  0  0  0  0  0  0  0  0  0  0
   -2.8579   -4.1250    0.0000 C   0  0  0  0  0  0  0  0  0  0  0  0
   -2.1434   -3.7125    0.0000 C   0  0  0  0  0  0  0  0  0  0  0  0
   -2.1434   -2.8875    0.0000 Cl  0  0  0  0  0  0  0  0  0  0  0  0
   -1.4289   -4.1250    0.0000 C   0  0  0  0  0  0  0  0  0  0  0  0
   -0.7145   -3.7125    0.0000 C   0  0  0  0  0  0  0  0  0  0  0  0
    0.0000   -4.1250    0.0000 O   0  0  0  0  0  0  0  0  0  0  0  0
   -0.7145   -2.8875    0.0000 N   0  0  0  0  0  0  0  0  0  0  0  0
    0.0000   -2.4750    0.0000 C   0  0  0  0  0  0  0  0  0  0  0  0
    0.0000   -1.6500    0.0000 C   0  0  1  0  0  0  0  0  0  0  0  0
   -0.7145   -1.2375    0.0000 C   0  0  0  0  0  0  0  0  0  0  0  0
   -1.4289   -1.6500    0.0000 C   0  0  0  0  0  0  0  0  0  0  0  0
   -2.1434   -1.2375    0.0000 C   0  0  0  0  0  0  0  0  0  0  0  0
   -2.1434   -0.4125    0.0000 C   0  0  0  0  0  0  0  0  0  0  0  0
   -1.4289   -0.0000    0.0000 C   0  0  0  0  0  0  0  0  0  0  0  0
   -1.4289    0.8250    0.0000 F   0  0  0  0  0  0  0  0  0  0  0  0
   -0.7145   -0.4125    0.0000 C   0  0  0  0  0  0  0  0  0  0  0  0
    0.7145   -1.2375    0.0000 C   0  0  0  0  0  0  0  0  0  0  0  0
    0.7145   -0.4125    0.0000 C   0  0  0  0  0  0  0  0  0  0  0  0
    1.4289    0.0000    0.0000 C   0  0  0  0  0  0  0  0  0  0  0  0
    1.4289    0.8250    0.0000 O   0  0  0  0  0  0  0  0  0  0  0  0
    2.1434   -0.4125    0.0000 C   0  0  0  0  0  0  0  0  0  0  0  0
    2.8579    0.0000    0.0000 C   0  0  0  0  0  0  0  0  0  0  0  0
    2.8579    0.8250    0.0000 C   0  0  0  0  0  0  0  0  0  0  0  0
    3.5724   -0.4125    0.0000 C   0  0  0  0  0  0  0  0  0  0  0  0
    3.5724   -1.2375    0.0000 C   0  0  0  0  0  0  0  0  0  0  0  0
    2.8579   -1.6500    0.0000 C   0  0  0  0  0  0  0  0  0  0  0  0
    2.8579   -2.4750    0.0000 F   0  0  0  0  0  0  0  0  0  0  0  0
    2.1434   -1.2375    0.0000 C   0  0  0  0  0  0  0  0  0  0  0  0
    1.4289   -1.6500    0.0000 N   0  0  0  0  0  0  0  0  0  0  0  0
   -1.4289   -4.9500    0.0000 C   0  0  0  0  0  0  0  0  0  0  0  0
   -0.7145   -5.3625    0.0000 Cl  0  0  0  0  0  0  0  0  0  0  0  0
   -2.1434   -5.3625    0.0000 C   0  0  0  0  0  0  0  0  0  0  0  0
   -3.6586   -6.1830    0.0000 N   0  0  0  0  0  0  0  0  0  0  0  0
  1  2  1  0  0  0  0
  2  3  4  0  0  0  0
  3  4  4  0  0  0  0
  4  5  4  0  0  0  0
  5  6  1  0  0  0  0
  6  7  4  0  0  0  0
  7  8  4  0  0  0  0
  8  9  1  0  0  0  0
  8 10  4  0  0  0  0
 10 11  1  0  0  0  0
 11 12  2  0  0  0  0
 11 13  1  0  0  0  0
 13 14  1  0  0  0  0
 14 15  1  0  0  0  0
 15 16  1  0  0  0  0
 16 17  4  0  0  0  0
 17 18  4  0  0  0  0
 18 19  4  0  0  0  0
 19 20  4  0  0  0  0
 20 21  1  0  0  0  0
 20 22  4  0  0  0  0
 16 22  4  0  0  0  0
 15 23  1  1  0  0  0
 23 24  4  0  0  0  0
 24 25  4  0  0  0  0
 25 26  2  0  0  0  0
 25 27  4  0  0  0  0
 27 28  4  0  0  0  0
 28 29  1  0  0  0  0
 28 30  4  0  0  0  0
 30 31  4  0  0  0  0
 31 32  4  0  0  0  0
 32 33  1  0  0  0  0
 32 34  4  0  0  0  0
 27 34  4  0  0  0  0
 34 35  4  0  0  0  0
 23 35  4  0  0  0  0
 10 36  4  0  0  0  0
 36 37  1  0  0  0  0
 36 38  4  0  0  0  0
  6 38  4  0  0  0  0
  5 39  4  0  0  0  0
  2 39  4  0  0  0  0
M  STY  1   1 DAT
M  SAL   1  1  35
M  SDT   1 MRV_IMPLICIT_H                                        
M  SDD   1     0.0000    0.0000    DR    ALL  0       0  
M  SED   1 IMPL_H1
M  END
>  <CdId>
358383

>  <Mol Weight>
568.401

>  <Formula>
C28H21Cl2F2N5O2

>  <cmpd_chemblid>
CHEMBL3627900

>  <std_type>
Ki

>  <std_value>
3.3

>  <std_unit>
nM

>  <target_id>
CHEMBL2016

>  <target_name>
Coagulation factor IX

>  <organism>
Homo sapiens

>  <target_type>
SINGLE PROTEIN

$$$$

  Mrv0541 08052111042D          

 34 38  0  0  1  0            999 V2000
    2.7845    0.6979    0.0000 C   0  0  0  0  0  0  0  0  0  0  0  0
    2.0701    1.1104    0.0000 C   0  0  0  0  0  0  0  0  0  0  0  0
    1.3556    0.6979    0.0000 C   0  0  0  0  0  0  0  0  0  0  0  0
    0.6411    1.1104    0.0000 C   0  0  0  0  0  0  0  0  0  0  0  0
   -0.1435    0.8555    0.0000 N   0  0  0  0  0  0  0  0  0  0  0  0
   -0.6284    1.5229    0.0000 C   0  0  0  0  0  0  0  0  0  0  0  0
   -1.4534    1.5229    0.0000 C   0  0  1  0  0  0  0  0  0  0  0  0
   -1.8659    0.8085    0.0000 C   0  0  0  0  0  0  0  0  0  0  0  0
   -2.6909    0.8085    0.0000 N   0  0  0  0  0  0  0  0  0  0  0  0
   -3.1034    0.0940    0.0000 C   0  0  0  0  0  0  0  0  0  0  0  0
   -2.6909   -0.6205    0.0000 O   0  0  0  0  0  0  0  0  0  0  0  0
   -3.9284    0.0940    0.0000 C   0  0  0  0  0  0  0  0  0  0  0  0
   -4.3409   -0.6205    0.0000 C   0  0  0  0  0  0  0  0  0  0  0  0
   -5.1659   -0.6205    0.0000 C   0  0  0  0  0  0  0  0  0  0  0  0
   -5.5784    0.0940    0.0000 C   0  0  0  0  0  0  0  0  0  0  0  0
   -6.4034    0.0940    0.0000 N   0  0  0  0  0  0  0  0  0  0  0  0
   -6.8884   -0.5734    0.0000 C   0  0  0  0  0  0  0  0  0  0  0  0
   -7.6730   -0.3185    0.0000 N   0  0  0  0  0  0  0  0  0  0  0  0
   -7.6730    0.5065    0.0000 N   0  0  0  0  0  0  0  0  0  0  0  0
   -6.8884    0.7614    0.0000 C   0  0  0  0  0  0  0  0  0  0  0  0
   -5.1659    0.8085    0.0000 C   0  0  0  0  0  0  0  0  0  0  0  0
   -4.3409    0.8085    0.0000 C   0  0  0  0  0  0  0  0  0  0  0  0
   -3.9284    1.5229    0.0000 Cl  0  0  0  0  0  0  0  0  0  0  0  0
   -1.8659    2.2374    0.0000 C   0  0  0  0  0  0  0  0  0  0  0  0
   -2.6909    2.2374    0.0000 C   0  0  0  0  0  0  0  0  0  0  0  0
   -3.1034    2.9519    0.0000 C   0  0  0  0  0  0  0  0  0  0  0  0
   -2.6909    3.6664    0.0000 C   0  0  0  0  0  0  0  0  0  0  0  0
   -1.8659    3.6664    0.0000 N   0  0  0  0  0  0  0  0  0  0  0  0
   -1.4534    2.9519    0.0000 C   0  0  0  0  0  0  0  0  0  0  0  0
   -0.1435    2.1904    0.0000 N   0  0  0  0  0  0  0  0  0  0  0  0
    0.6411    1.9354    0.0000 C   0  0  0  0  0  0  0  0  0  0  0  0
    1.3556    2.3479    0.0000 C   0  0  0  0  0  0  0  0  0  0  0  0
    2.0701    1.9354    0.0000 C   0  0  0  0  0  0  0  0  0  0  0  0
    2.7845    2.3479    0.0000 C   0  0  0  0  0  0  0  0  0  0  0  0
  1  2  1  0  0  0  0
  2  3  4  0  0  0  0
  3  4  4  0  0  0  0
  4  5  4  0  0  0  0
  5  6  4  0  0  0  0
  6  7  1  0  0  0  0
  7  8  1  0  0  0  0
  8  9  1  0  0  0  0
  9 10  1  0  0  0  0
 10 11  2  0  0  0  0
 10 12  1  0  0  0  0
 12 13  4  0  0  0  0
 13 14  4  0  0  0  0
 14 15  4  0  0  0  0
 15 16  1  0  0  0  0
 16 17  4  0  0  0  0
 17 18  4  0  0  0  0
 18 19  4  0  0  0  0
 19 20  4  0  0  0  0
 16 20  4  0  0  0  0
 15 21  4  0  0  0  0
 21 22  4  0  0  0  0
 12 22  4  0  0  0  0
 22 23  1  0  0  0  0
  7 24  1  1  0  0  0
 24 25  4  0  0  0  0
 25 26  4  0  0  0  0
 26 27  4  0  0  0  0
 27 28  4  0  0  0  0
 28 29  4  0  0  0  0
 24 29  4  0  0  0  0
  6 30  4  0  0  0  0
 30 31  4  0  0  0  0
  4 31  4  0  0  0  0
 31 32  4  0  0  0  0
 32 33  4  0  0  0  0
  2 33  4  0  0  0  0
 33 34  1  0  0  0  0
M  STY  1   1 DAT
M  SAL   1  1  30
M  SDT   1 MRV_IMPLICIT_H                                        
M  SDD   1     0.0000    0.0000    DR    ALL  0       0  
M  SED   1 IMPL_H1
M  END
>  <CdId>
358385

>  <Mol Weight>
471.941

>  <Formula>
C25H22ClN7O

>  <cmpd_chemblid>
CHEMBL3627873

>  <std_type>
Ki

>  <std_value>
15.4

>  <std_unit>
nM

>  <target_id>
CHEMBL2016

>  <target_name>
Coagulation factor IX

>  <organism>
Homo sapiens

>  <target_type>
SINGLE PROTEIN

$$$$

  Mrv0541 08052111042D          

 40 44  0  0  1  0            999 V2000
    1.4289   -2.4750    0.0000 N   0  0  0  0  0  0  0  0  0  0  0  0
    1.4289   -1.6500    0.0000 C   0  0  0  0  0  0  0  0  0  0  0  0
    0.7145   -1.2375    0.0000 N   0  0  0  0  0  0  0  0  0  0  0  0
    0.7145   -0.4125    0.0000 C   0  0  0  0  0  0  0  0  0  0  0  0
    1.4289    0.0000    0.0000 C   0  0  0  0  0  0  0  0  0  0  0  0
    2.1434   -0.4125    0.0000 C   0  0  0  0  0  0  0  0  0  0  0  0
    2.8579    0.0000    0.0000 C   0  0  0  0  0  0  0  0  0  0  0  0
    3.5724   -0.4125    0.0000 C   0  0  0  0  0  0  0  0  0  0  0  0
    4.2868   -0.0000    0.0000 C   0  0  0  0  0  0  0  0  0  0  0  0
    4.2868    0.8250    0.0000 C   0  0  2  0  0  0  0  0  0  0  0  0
    3.5724    1.2375    0.0000 C   0  0  0  0  0  0  0  0  0  0  0  0
    2.8579    0.8250    0.0000 O   0  0  0  0  0  0  0  0  0  0  0  0
    3.5724    2.0625    0.0000 O   0  0  0  0  0  0  0  0  0  0  0  0
    5.0013    1.2375    0.0000 N   0  0  0  0  0  0  0  0  0  0  0  0
    5.0875    2.0580    0.0000 C   0  0  0  0  0  0  0  0  0  0  0  0
    5.8945    2.2295    0.0000 C   0  0  0  0  0  0  0  0  0  0  0  0
    6.3070    1.5150    0.0000 C   0  0  2  0  0  0  0  0  0  0  0  0
    7.1275    1.4288    0.0000 N   0  0  0  0  0  0  0  0  0  0  0  0
    7.6124    2.0962    0.0000 S   0  0  0  0  0  0  0  0  0  0  0  0
    8.2798    1.6113    0.0000 O   0  0  0  0  0  0  0  0  0  0  0  0
    6.9450    2.5812    0.0000 O   0  0  0  0  0  0  0  0  0  0  0  0
    8.0973    2.7637    0.0000 C   0  0  0  0  0  0  0  0  0  0  0  0
    7.8424    3.5483    0.0000 C   0  0  0  0  0  0  0  0  0  0  0  0
    8.5098    4.0332    0.0000 N   0  0  0  0  0  0  0  0  0  0  0  0
    9.1773    3.5483    0.0000 C   0  0  0  0  0  0  0  0  0  0  0  0
    9.9619    3.8032    0.0000 N   0  0  0  0  0  0  0  0  0  0  0  0
   10.2168    4.5879    0.0000 C   0  0  0  0  0  0  0  0  0  0  0  0
   11.0418    4.5879    0.0000 C   0  0  0  0  0  0  0  0  0  0  0  0
   11.2968    3.8032    0.0000 C   0  0  0  0  0  0  0  0  0  0  0  0
   10.6293    3.3183    0.0000 C   0  0  0  0  0  0  0  0  0  0  0  0
    8.9223    2.7637    0.0000 S   0  0  0  0  0  0  0  0  0  0  0  0
    5.7550    0.9019    0.0000 C   0  0  0  0  0  0  0  0  0  0  0  0
    5.9265    0.0950    0.0000 O   0  0  0  0  0  0  0  0  0  0  0  0
    3.5724   -1.2375    0.0000 C   0  0  0  0  0  0  0  0  0  0  0  0
    4.2868   -1.6500    0.0000 C   0  0  0  0  0  0  0  0  0  0  0  0
    5.0013   -2.0625    0.0000 F   0  0  0  0  0  0  0  0  0  0  0  0
    3.8743   -2.3645    0.0000 F   0  0  0  0  0  0  0  0  0  0  0  0
    4.6993   -0.9355    0.0000 F   0  0  0  0  0  0  0  0  0  0  0  0
    2.8579   -1.6500    0.0000 C   0  0  0  0  0  0  0  0  0  0  0  0
    2.1434   -1.2375    0.0000 C   0  0  0  0  0  0  0  0  0  0  0  0
  1  2  1  0  0  0  0
  2  3  4  0  0  0  0
  3  4  4  0  0  0  0
  4  5  4  0  0  0  0
  5  6  4  0  0  0  0
  6  7  4  0  0  0  0
  7  8  4  0  0  0  0
  8  9  1  0  0  0  0
  9 10  1  0  0  0  0
 10 11  1  0  0  0  0
 11 12  2  0  0  0  0
 11 13  1  0  0  0  0
 10 14  1  6  0  0  0
 14 15  1  0  0  0  0
 15 16  1  0  0  0  0
 16 17  1  0  0  0  0
 17 18  1  6  0  0  0
 18 19  1  0  0  0  0
 19 20  2  0  0  0  0
 19 21  2  0  0  0  0
 19 22  1  0  0  0  0
 22 23  4  0  0  0  0
 23 24  4  0  0  0  0
 24 25  4  0  0  0  0
 25 26  1  0  0  0  0
 26 27  1  0  0  0  0
 27 28  1  0  0  0  0
 28 29  1  0  0  0  0
 29 30  1  0  0  0  0
 26 30  1  0  0  0  0
 25 31  4  0  0  0  0
 22 31  4  0  0  0  0
 17 32  1  0  0  0  0
 14 32  1  0  0  0  0
 32 33  2  0  0  0  0
  8 34  4  0  0  0  0
 34 35  1  0  0  0  0
 35 36  1  0  0  0  0
 35 37  1  0  0  0  0
 35 38  1  0  0  0  0
 34 39  4  0  0  0  0
 39 40  4  0  0  0  0
  2 40  4  0  0  0  0
  6 40  4  0  0  0  0
M  END
>  <CdId>
358386

>  <Mol Weight>
598.618

>  <Formula>
C24H25F3N6O5S2

>  <cmpd_chemblid>
CHEMBL3935069

>  <std_type>
Ki

>  <std_value>
43.0

>  <std_unit>
nM

>  <target_id>
CHEMBL2016

>  <target_name>
Coagulation factor IX

>  <organism>
Homo sapiens

>  <target_type>
SINGLE PROTEIN

$$$$

  Mrv0541 08052111042D          

 31 35  0  0  1  0            999 V2000
    2.7845    0.6979    0.0000 C   0  0  0  0  0  0  0  0  0  0  0  0
    2.0701    1.1104    0.0000 C   0  0  0  0  0  0  0  0  0  0  0  0
    1.3556    0.6979    0.0000 C   0  0  0  0  0  0  0  0  0  0  0  0
    0.6411    1.1104    0.0000 C   0  0  0  0  0  0  0  0  0  0  0  0
   -0.1435    0.8555    0.0000 C   0  0  0  0  0  0  0  0  0  0  0  0
   -0.3984    0.0709    0.0000 N   0  0  0  0  0  0  0  0  0  0  0  0
   -0.6284    1.5229    0.0000 N   0  0  0  0  0  0  0  0  0  0  0  0
   -0.1435    2.1904    0.0000 O   0  0  0  0  0  0  0  0  0  0  0  0
    0.6411    1.9354    0.0000 C   0  0  0  0  0  0  0  0  0  0  0  0
    1.3556    2.3479    0.0000 C   0  0  0  0  0  0  0  0  0  0  0  0
    1.3556    3.1729    0.0000 N   0  0  0  0  0  0  0  0  0  0  0  0
    0.6881    3.6579    0.0000 C   0  0  0  0  0  0  0  0  0  0  0  0
    0.9431    4.4425    0.0000 C   0  0  0  0  0  0  0  0  0  0  0  0
    1.7681    4.4425    0.0000 C   0  0  1  0  0  0  0  0  0  0  0  0
    2.2530    5.1099    0.0000 N   0  0  0  0  0  0  0  0  0  0  0  0
    1.9175    5.8636    0.0000 C   0  0  0  0  0  0  0  0  0  0  0  0
    1.0970    5.9498    0.0000 O   0  0  0  0  0  0  0  0  0  0  0  0
    2.4024    6.5310    0.0000 C   0  0  0  0  0  0  0  0  0  0  0  0
    2.0668    7.2847    0.0000 C   0  0  0  0  0  0  0  0  0  0  0  0
    2.5517    7.9522    0.0000 C   0  0  0  0  0  0  0  0  0  0  0  0
    3.3722    7.8659    0.0000 C   0  0  0  0  0  0  0  0  0  0  0  0
    3.8571    8.5334    0.0000 N   0  0  0  0  0  0  0  0  0  0  0  0
    3.6022    9.3180    0.0000 C   0  0  0  0  0  0  0  0  0  0  0  0
    4.2696    9.8029    0.0000 N   0  0  0  0  0  0  0  0  0  0  0  0
    4.9371    9.3180    0.0000 N   0  0  0  0  0  0  0  0  0  0  0  0
    4.6821    8.5334    0.0000 C   0  0  0  0  0  0  0  0  0  0  0  0
    3.7078    7.1122    0.0000 C   0  0  0  0  0  0  0  0  0  0  0  0
    3.2229    6.4448    0.0000 C   0  0  0  0  0  0  0  0  0  0  0  0
    3.5584    5.6911    0.0000 Cl  0  0  0  0  0  0  0  0  0  0  0  0
    2.0230    3.6579    0.0000 C   0  0  0  0  0  0  0  0  0  0  0  0
    2.0701    1.9354    0.0000 N   0  0  0  0  0  0  0  0  0  0  0  0
  1  2  1  0  0  0  0
  2  3  4  0  0  0  0
  3  4  4  0  0  0  0
  4  5  4  0  0  0  0
  5  6  1  0  0  0  0
  5  7  4  0  0  0  0
  7  8  4  0  0  0  0
  8  9  4  0  0  0  0
  4  9  4  0  0  0  0
  9 10  4  0  0  0  0
 10 11  1  0  0  0  0
 11 12  1  0  0  0  0
 12 13  1  0  0  0  0
 13 14  1  0  0  0  0
 14 15  1  1  0  0  0
 15 16  1  0  0  0  0
 16 17  2  0  0  0  0
 16 18  1  0  0  0  0
 18 19  4  0  0  0  0
 19 20  4  0  0  0  0
 20 21  4  0  0  0  0
 21 22  1  0  0  0  0
 22 23  4  0  0  0  0
 23 24  4  0  0  0  0
 24 25  4  0  0  0  0
 25 26  4  0  0  0  0
 22 26  4  0  0  0  0
 21 27  4  0  0  0  0
 27 28  4  0  0  0  0
 18 28  4  0  0  0  0
 28 29  1  0  0  0  0
 14 30  1  0  0  0  0
 11 30  1  0  0  0  0
 10 31  4  0  0  0  0
  2 31  4  0  0  0  0
M  END
>  <CdId>
358387

>  <Mol Weight>
438.87

>  <Formula>
C20H19ClN8O2

>  <cmpd_chemblid>
CHEMBL4083789

>  <std_type>
Ki

>  <std_value>
20.5

>  <std_unit>
nM

>  <target_id>
CHEMBL2016

>  <target_name>
Coagulation factor IX

>  <organism>
Homo sapiens

>  <target_type>
SINGLE PROTEIN

$$$$

  Mrv0541 08052111042D          

 44 48  0  0  1  0            999 V2000
    8.6329   -2.2539    0.0000 C   0  0  0  0  0  0  0  0  0  0  0  0
    8.2204   -1.5395    0.0000 O   0  0  0  0  0  0  0  0  0  0  0  0
    7.3954   -1.5395    0.0000 C   0  0  0  0  0  0  0  0  0  0  0  0
    6.9829   -2.2539    0.0000 O   0  0  0  0  0  0  0  0  0  0  0  0
    6.9829   -0.8250    0.0000 N   0  0  0  0  0  0  0  0  0  0  0  0
    6.1579   -0.8250    0.0000 C   0  0  0  0  0  0  0  0  0  0  0  0
    5.7454   -0.1105    0.0000 C   0  0  0  0  0  0  0  0  0  0  0  0
    4.9204   -0.1105    0.0000 C   0  0  0  0  0  0  0  0  0  0  0  0
    4.5079   -0.8250    0.0000 C   0  0  0  0  0  0  0  0  0  0  0  0
    4.9204   -1.5395    0.0000 C   0  0  0  0  0  0  0  0  0  0  0  0
    5.7454   -1.5395    0.0000 C   0  0  0  0  0  0  0  0  0  0  0  0
    4.5079   -2.2539    0.0000 N   0  0  0  0  0  0  0  0  0  0  0  0
    4.9204   -2.9684    0.0000 C   0  0  0  0  0  0  0  0  0  0  0  0
    5.7454   -2.9684    0.0000 O   0  0  0  0  0  0  0  0  0  0  0  0
    4.5079   -3.6829    0.0000 C   0  0  2  0  0  0  0  0  0  0  0  0
    4.9204   -4.3974    0.0000 C   0  0  0  0  0  0  0  0  0  0  0  0
    3.6829   -3.6829    0.0000 C   0  0  0  0  0  0  0  0  0  0  0  0
    3.2704   -2.9684    0.0000 C   0  0  0  0  0  0  0  0  0  0  0  0
    2.4454   -2.9684    0.0000 C   0  0  0  0  0  0  0  0  0  0  0  0
    2.0329   -2.2539    0.0000 C   0  0  2  0  0  0  0  0  0  0  0  0
    1.2079   -2.2539    0.0000 N   0  0  0  0  0  0  0  0  0  0  0  0
    0.7954   -2.9684    0.0000 C   0  0  0  0  0  0  0  0  0  0  0  0
   -0.0296   -2.9684    0.0000 C   0  0  0  0  0  0  0  0  0  0  0  0
   -0.4421   -2.2539    0.0000 C   0  0  0  0  0  0  0  0  0  0  0  0
   -1.2671   -2.2539    0.0000 C   0  0  0  0  0  0  0  0  0  0  0  0
   -1.6796   -2.9684    0.0000 C   0  0  0  0  0  0  0  0  0  0  0  0
   -2.5046   -2.9684    0.0000 C   0  0  0  0  0  0  0  0  0  0  0  0
   -2.9171   -3.6829    0.0000 Cl  0  0  0  0  0  0  0  0  0  0  0  0
   -2.9171   -2.2539    0.0000 C   0  0  0  0  0  0  0  0  0  0  0  0
   -2.5046   -1.5395    0.0000 C   0  0  0  0  0  0  0  0  0  0  0  0
   -1.6796   -1.5395    0.0000 C   0  0  0  0  0  0  0  0  0  0  0  0
   -1.2671   -0.8250    0.0000 O   0  0  0  0  0  0  0  0  0  0  0  0
   -1.6796   -0.1105    0.0000 C   0  0  0  0  0  0  0  0  0  0  0  0
   -2.5046   -0.1105    0.0000 F   0  0  0  0  0  0  0  0  0  0  0  0
   -1.2671    0.6039    0.0000 F   0  0  0  0  0  0  0  0  0  0  0  0
   -0.0296   -1.5395    0.0000 C   0  0  0  0  0  0  0  0  0  0  0  0
    0.7954   -1.5395    0.0000 C   0  0  0  0  0  0  0  0  0  0  0  0
    1.2079   -0.8250    0.0000 O   0  0  0  0  0  0  0  0  0  0  0  0
    2.4454   -1.5395    0.0000 C   0  0  0  0  0  0  0  0  0  0  0  0
    3.2704   -1.5395    0.0000 C   0  0  0  0  0  0  0  0  0  0  0  0
    3.6829   -0.8250    0.0000 C   0  0  0  0  0  0  0  0  0  0  0  0
    3.2704   -0.1105    0.0000 C   0  0  0  0  0  0  0  0  0  0  0  0
    2.4454   -0.1105    0.0000 C   0  0  0  0  0  0  0  0  0  0  0  0
    2.0329   -0.8250    0.0000 N   0  0  0  0  0  0  0  0  0  0  0  0
  1  2  1  0  0  0  0
  2  3  1  0  0  0  0
  3  4  2  0  0  0  0
  3  5  1  0  0  0  0
  5  6  1  0  0  0  0
  6  7  4  0  0  0  0
  7  8  4  0  0  0  0
  8  9  4  0  0  0  0
  9 10  4  0  0  0  0
 10 11  4  0  0  0  0
  6 11  4  0  0  0  0
 10 12  1  0  0  0  0
 12 13  1  0  0  0  0
 13 14  2  0  0  0  0
 13 15  1  0  0  0  0
 15 16  1  6  0  0  0
 15 17  1  0  0  0  0
 17 18  1  0  0  0  0
 18 19  1  0  0  0  0
 19 20  1  0  0  0  0
 20 21  1  6  0  0  0
 21 22  1  0  0  0  0
 22 23  1  0  0  0  0
 23 24  1  0  0  0  0
 24 25  1  0  0  0  0
 25 26  4  0  0  0  0
 26 27  4  0  0  0  0
 27 28  1  0  0  0  0
 27 29  4  0  0  0  0
 29 30  4  0  0  0  0
 30 31  4  0  0  0  0
 25 31  4  0  0  0  0
 31 32  1  0  0  0  0
 32 33  1  0  0  0  0
 33 34  1  0  0  0  0
 33 35  1  0  0  0  0
 24 36  2  0  0  0  0
 36 37  1  0  0  0  0
 21 37  1  0  0  0  0
 37 38  2  0  0  0  0
 20 39  1  0  0  0  0
 39 40  4  0  0  0  0
 40 41  4  0  0  0  0
  9 41  1  0  0  0  0
 41 42  4  0  0  0  0
 42 43  4  0  0  0  0
 43 44  4  0  0  0  0
 39 44  4  0  0  0  0
M  END
>  <CdId>
358388

>  <Mol Weight>
625.062

>  <Formula>
C32H31ClF2N4O5

>  <cmpd_chemblid>
CHEMBL4110346

>  <std_type>
Ki

>  <std_value>
0.13

>  <std_unit>
nM

>  <target_id>
CHEMBL2016

>  <target_name>
Coagulation factor IX

>  <organism>
Homo sapiens

>  <target_type>
SINGLE PROTEIN

$$$$

  Mrv0541 08052111042D          

 45 49  0  0  1  0            999 V2000
    8.6329   -2.2539    0.0000 C   0  0  0  0  0  0  0  0  0  0  0  0
    8.2204   -1.5395    0.0000 O   0  0  0  0  0  0  0  0  0  0  0  0
    7.3954   -1.5395    0.0000 C   0  0  0  0  0  0  0  0  0  0  0  0
    6.9829   -2.2539    0.0000 O   0  0  0  0  0  0  0  0  0  0  0  0
    6.9829   -0.8250    0.0000 N   0  0  0  0  0  0  0  0  0  0  0  0
    6.1579   -0.8250    0.0000 C   0  0  0  0  0  0  0  0  0  0  0  0
    5.7454   -0.1105    0.0000 C   0  0  0  0  0  0  0  0  0  0  0  0
    4.9204   -0.1105    0.0000 C   0  0  0  0  0  0  0  0  0  0  0  0
    4.5079   -0.8250    0.0000 C   0  0  0  0  0  0  0  0  0  0  0  0
    4.9204   -1.5395    0.0000 C   0  0  0  0  0  0  0  0  0  0  0  0
    5.7454   -1.5395    0.0000 C   0  0  0  0  0  0  0  0  0  0  0  0
    4.5079   -2.2539    0.0000 N   0  0  0  0  0  0  0  0  0  0  0  0
    4.9204   -2.9684    0.0000 C   0  0  0  0  0  0  0  0  0  0  0  0
    5.7454   -2.9684    0.0000 O   0  0  0  0  0  0  0  0  0  0  0  0
    4.5079   -3.6829    0.0000 C   0  0  2  0  0  0  0  0  0  0  0  0
    4.9204   -4.3974    0.0000 C   0  0  0  0  0  0  0  0  0  0  0  0
    3.6829   -3.6829    0.0000 C   0  0  0  0  0  0  0  0  0  0  0  0
    3.2704   -2.9684    0.0000 C   0  0  0  0  0  0  0  0  0  0  0  0
    2.4454   -2.9684    0.0000 C   0  0  0  0  0  0  0  0  0  0  0  0
    2.0329   -2.2539    0.0000 C   0  0  2  0  0  0  0  0  0  0  0  0
    1.2079   -2.2539    0.0000 N   0  0  0  0  0  0  0  0  0  0  0  0
    0.7954   -2.9684    0.0000 C   0  0  0  0  0  0  0  0  0  0  0  0
   -0.0296   -2.9684    0.0000 C   0  0  0  0  0  0  0  0  0  0  0  0
   -0.4421   -2.2539    0.0000 C   0  0  0  0  0  0  0  0  0  0  0  0
   -1.2671   -2.2539    0.0000 C   0  0  0  0  0  0  0  0  0  0  0  0
   -1.6796   -2.9684    0.0000 C   0  0  0  0  0  0  0  0  0  0  0  0
   -1.2671   -3.6829    0.0000 C   0  0  0  0  0  0  0  0  0  0  0  0
   -0.8546   -4.3974    0.0000 F   0  0  0  0  0  0  0  0  0  0  0  0
   -1.9816   -4.0954    0.0000 F   0  0  0  0  0  0  0  0  0  0  0  0
   -0.5526   -3.2704    0.0000 F   0  0  0  0  0  0  0  0  0  0  0  0
   -2.5046   -2.9684    0.0000 C   0  0  0  0  0  0  0  0  0  0  0  0
   -2.9171   -2.2539    0.0000 C   0  0  0  0  0  0  0  0  0  0  0  0
   -2.5046   -1.5395    0.0000 C   0  0  0  0  0  0  0  0  0  0  0  0
   -2.9171   -0.8250    0.0000 Cl  0  0  0  0  0  0  0  0  0  0  0  0
   -1.6796   -1.5395    0.0000 C   0  0  0  0  0  0  0  0  0  0  0  0
   -1.2671   -0.8250    0.0000 F   0  0  0  0  0  0  0  0  0  0  0  0
   -0.0296   -1.5395    0.0000 C   0  0  0  0  0  0  0  0  0  0  0  0
    0.7954   -1.5395    0.0000 C   0  0  0  0  0  0  0  0  0  0  0  0
    1.2079   -0.8250    0.0000 O   0  0  0  0  0  0  0  0  0  0  0  0
    2.4454   -1.5395    0.0000 C   0  0  0  0  0  0  0  0  0  0  0  0
    3.2704   -1.5395    0.0000 C   0  0  0  0  0  0  0  0  0  0  0  0
    3.6829   -0.8250    0.0000 C   0  0  0  0  0  0  0  0  0  0  0  0
    3.2704   -0.1105    0.0000 C   0  0  0  0  0  0  0  0  0  0  0  0
    2.4454   -0.1105    0.0000 C   0  0  0  0  0  0  0  0  0  0  0  0
    2.0329   -0.8250    0.0000 N   0  0  0  0  0  0  0  0  0  0  0  0
  1  2  1  0  0  0  0
  2  3  1  0  0  0  0
  3  4  2  0  0  0  0
  3  5  1  0  0  0  0
  5  6  1  0  0  0  0
  6  7  4  0  0  0  0
  7  8  4  0  0  0  0
  8  9  4  0  0  0  0
  9 10  4  0  0  0  0
 10 11  4  0  0  0  0
  6 11  4  0  0  0  0
 10 12  1  0  0  0  0
 12 13  1  0  0  0  0
 13 14  2  0  0  0  0
 13 15  1  0  0  0  0
 15 16  1  6  0  0  0
 15 17  1  0  0  0  0
 17 18  1  0  0  0  0
 18 19  1  0  0  0  0
 19 20  1  0  0  0  0
 20 21  1  6  0  0  0
 21 22  1  0  0  0  0
 22 23  1  0  0  0  0
 23 24  1  0  0  0  0
 24 25  1  0  0  0  0
 25 26  4  0  0  0  0
 26 27  1  0  0  0  0
 27 28  1  0  0  0  0
 27 29  1  0  0  0  0
 27 30  1  0  0  0  0
 26 31  4  0  0  0  0
 31 32  4  0  0  0  0
 32 33  4  0  0  0  0
 33 34  1  0  0  0  0
 33 35  4  0  0  0  0
 25 35  4  0  0  0  0
 35 36  1  0  0  0  0
 24 37  2  0  0  0  0
 37 38  1  0  0  0  0
 21 38  1  0  0  0  0
 38 39  2  0  0  0  0
 20 40  1  0  0  0  0
 40 41  4  0  0  0  0
 41 42  4  0  0  0  0
  9 42  1  0  0  0  0
 42 43  4  0  0  0  0
 43 44  4  0  0  0  0
 44 45  4  0  0  0  0
 40 45  4  0  0  0  0
M  END
>  <CdId>
358389

>  <Mol Weight>
645.044

>  <Formula>
C32H29ClF4N4O4

>  <cmpd_chemblid>
CHEMBL4114933

>  <std_type>
Ki

>  <std_value>
0.1

>  <std_unit>
nM

>  <target_id>
CHEMBL2016

>  <target_name>
Coagulation factor IX

>  <organism>
Homo sapiens

>  <target_type>
SINGLE PROTEIN

$$$$

  Mrv0541 08052111042D          

 37 40  0  0  1  0            999 V2000
    0.0000    0.8250    0.0000 C   0  0  0  0  0  0  0  0  0  0  0  0
    0.0000    0.0000    0.0000 O   0  0  0  0  0  0  0  0  0  0  0  0
    0.7145   -0.4125    0.0000 C   0  0  0  0  0  0  0  0  0  0  0  0
    1.4289    0.0000    0.0000 C   0  0  0  0  0  0  0  0  0  0  0  0
    2.1434   -0.4125    0.0000 C   0  0  0  0  0  0  0  0  0  0  0  0
    2.8579    0.0000    0.0000 C   0  0  0  0  0  0  0  0  0  0  0  0
    2.8579    0.8250    0.0000 N   0  0  0  0  0  0  0  0  0  0  0  0
    3.5724   -0.4125    0.0000 N   0  0  0  0  0  0  0  0  0  0  0  0
    3.5724   -1.2375    0.0000 C   0  0  0  0  0  0  0  0  0  0  0  0
    2.8579   -1.6500    0.0000 C   0  0  0  0  0  0  0  0  0  0  0  0
    2.1434   -1.2375    0.0000 C   0  0  0  0  0  0  0  0  0  0  0  0
    1.4289   -1.6500    0.0000 C   0  0  0  0  0  0  0  0  0  0  0  0
    0.7145   -1.2375    0.0000 C   0  0  0  0  0  0  0  0  0  0  0  0
    0.0000   -1.6500    0.0000 C   0  0  0  0  0  0  0  0  0  0  0  0
    0.0000   -2.4750    0.0000 C   0  0  2  0  0  0  0  0  0  0  0  0
   -0.7145   -2.8875    0.0000 C   0  0  0  0  0  0  0  0  0  0  0  0
   -0.7145   -3.7125    0.0000 O   0  0  0  0  0  0  0  0  0  0  0  0
   -1.4289   -2.4750    0.0000 O   0  0  0  0  0  0  0  0  0  0  0  0
    0.7145   -2.8875    0.0000 N   0  0  0  0  0  0  0  0  0  0  0  0
    1.4681   -2.5519    0.0000 C   0  0  0  0  0  0  0  0  0  0  0  0
    2.0202   -3.1650    0.0000 C   0  0  0  0  0  0  0  0  0  0  0  0
    1.6077   -3.8795    0.0000 C   0  0  2  0  0  0  0  0  0  0  0  0
    1.9432   -4.6332    0.0000 N   0  0  0  0  0  0  0  0  0  0  0  0
    1.4583   -5.3006    0.0000 S   0  0  0  0  0  0  0  0  0  0  0  0
    0.7909   -4.8157    0.0000 O   0  0  0  0  0  0  0  0  0  0  0  0
    2.1258   -5.7855    0.0000 O   0  0  0  0  0  0  0  0  0  0  0  0
    0.9734   -5.9681    0.0000 C   0  0  0  0  0  0  0  0  0  0  0  0
    1.3089   -6.7217    0.0000 C   0  0  0  0  0  0  0  0  0  0  0  0
    0.8240   -7.3892    0.0000 C   0  0  0  0  0  0  0  0  0  0  0  0
    0.0035   -7.3029    0.0000 C   0  0  0  0  0  0  0  0  0  0  0  0
   -0.4814   -7.9704    0.0000 N   0  0  0  0  0  0  0  0  0  0  0  0
   -0.1458   -8.7241    0.0000 C   0  0  0  0  0  0  0  0  0  0  0  0
   -1.3019   -7.8841    0.0000 C   0  0  0  0  0  0  0  0  0  0  0  0
   -0.3320   -6.5493    0.0000 N   0  0  0  0  0  0  0  0  0  0  0  0
    0.1529   -5.8818    0.0000 C   0  0  0  0  0  0  0  0  0  0  0  0
    0.8007   -3.7080    0.0000 C   0  0  0  0  0  0  0  0  0  0  0  0
    0.1876   -4.2600    0.0000 O   0  0  0  0  0  0  0  0  0  0  0  0
  1  2  1  0  0  0  0
  2  3  1  0  0  0  0
  3  4  4  0  0  0  0
  4  5  4  0  0  0  0
  5  6  4  0  0  0  0
  6  7  1  0  0  0  0
  6  8  4  0  0  0  0
  8  9  4  0  0  0  0
  9 10  4  0  0  0  0
 10 11  4  0  0  0  0
  5 11  4  0  0  0  0
 11 12  4  0  0  0  0
 12 13  4  0  0  0  0
  3 13  4  0  0  0  0
 13 14  1  0  0  0  0
 14 15  1  0  0  0  0
 15 16  1  0  0  0  0
 16 17  2  0  0  0  0
 16 18  1  0  0  0  0
 15 19  1  1  0  0  0
 19 20  1  0  0  0  0
 20 21  1  0  0  0  0
 21 22  1  0  0  0  0
 22 23  1  6  0  0  0
 23 24  1  0  0  0  0
 24 25  2  0  0  0  0
 24 26  2  0  0  0  0
 24 27  1  0  0  0  0
 27 28  4  0  0  0  0
 28 29  4  0  0  0  0
 29 30  4  0  0  0  0
 30 31  1  0  0  0  0
 31 32  1  0  0  0  0
 31 33  1  0  0  0  0
 30 34  4  0  0  0  0
 34 35  4  0  0  0  0
 27 35  4  0  0  0  0
 22 36  1  0  0  0  0
 19 36  1  0  0  0  0
 36 37  2  0  0  0  0
M  END
>  <CdId>
358390

>  <Mol Weight>
528.581

>  <Formula>
C24H28N6O6S

>  <cmpd_chemblid>
CHEMBL3894215

>  <std_type>
Ki

>  <std_value>
70.0

>  <std_unit>
nM

>  <target_id>
CHEMBL2016

>  <target_name>
Coagulation factor IX

>  <organism>
Homo sapiens

>  <target_type>
SINGLE PROTEIN

$$$$

  Mrv0541 08052111042D          

 33 37  0  0  1  0            999 V2000
   -1.0872    8.4625    0.0000 C   0  0  0  0  0  0  0  0  0  0  0  0
   -0.3026    8.2075    0.0000 N   0  0  0  0  0  0  0  0  0  0  0  0
    0.3649    8.6925    0.0000 N   0  0  0  0  0  0  0  0  0  0  0  0
    1.0323    8.2075    0.0000 C   0  0  0  0  0  0  0  0  0  0  0  0
    0.7774    7.4229    0.0000 N   0  0  0  0  0  0  0  0  0  0  0  0
    1.2623    6.7555    0.0000 C   0  0  0  0  0  0  0  0  0  0  0  0
    2.0828    6.8417    0.0000 C   0  0  0  0  0  0  0  0  0  0  0  0
    2.5677    6.1743    0.0000 C   0  0  0  0  0  0  0  0  0  0  0  0
    2.2321    5.4206    0.0000 C   0  0  0  0  0  0  0  0  0  0  0  0
    2.7171    4.7532    0.0000 C   0  0  0  0  0  0  0  0  0  0  0  0
    3.5375    4.8394    0.0000 O   0  0  0  0  0  0  0  0  0  0  0  0
    2.3815    3.9995    0.0000 N   0  0  0  0  0  0  0  0  0  0  0  0
    2.8664    3.3320    0.0000 C   0  0  2  0  0  0  0  0  0  0  0  0
    3.6914    3.3320    0.0000 C   0  0  0  0  0  0  0  0  0  0  0  0
    3.9464    2.5474    0.0000 C   0  0  0  0  0  0  0  0  0  0  0  0
    3.2789    2.0625    0.0000 N   0  0  0  0  0  0  0  0  0  0  0  0
    3.2789    1.2375    0.0000 C   0  0  0  0  0  0  0  0  0  0  0  0
    3.9934    0.8250    0.0000 N   0  0  0  0  0  0  0  0  0  0  0  0
    3.9934    0.0000    0.0000 C   0  0  0  0  0  0  0  0  0  0  0  0
    3.2789   -0.4125    0.0000 C   0  0  0  0  0  0  0  0  0  0  0  0
    3.2789   -1.2375    0.0000 Cl  0  0  0  0  0  0  0  0  0  0  0  0
    2.5645    0.0000    0.0000 C   0  0  0  0  0  0  0  0  0  0  0  0
    1.7798   -0.2549    0.0000 C   0  0  0  0  0  0  0  0  0  0  0  0
    1.5249   -1.0396    0.0000 N   0  0  0  0  0  0  0  0  0  0  0  0
    1.2949    0.4125    0.0000 N   0  0  0  0  0  0  0  0  0  0  0  0
    1.7798    1.0799    0.0000 O   0  0  0  0  0  0  0  0  0  0  0  0
    2.5645    0.8250    0.0000 C   0  0  0  0  0  0  0  0  0  0  0  0
    2.6115    2.5474    0.0000 C   0  0  0  0  0  0  0  0  0  0  0  0
    1.4117    5.3344    0.0000 C   0  0  0  0  0  0  0  0  0  0  0  0
    1.0761    4.5807    0.0000 Cl  0  0  0  0  0  0  0  0  0  0  0  0
    0.9267    6.0018    0.0000 C   0  0  0  0  0  0  0  0  0  0  0  0
   -0.0476    7.4229    0.0000 C   0  0  0  0  0  0  0  0  0  0  0  0
   -0.5326    6.7555    0.0000 O   0  0  0  0  0  0  0  0  0  0  0  0
  1  2  1  0  0  0  0
  2  3  4  0  0  0  0
  3  4  4  0  0  0  0
  4  5  4  0  0  0  0
  5  6  1  0  0  0  0
  6  7  4  0  0  0  0
  7  8  4  0  0  0  0
  8  9  4  0  0  0  0
  9 10  1  0  0  0  0
 10 11  2  0  0  0  0
 10 12  1  0  0  0  0
 13 12  1  6  0  0  0
 13 14  1  0  0  0  0
 14 15  1  0  0  0  0
 15 16  1  0  0  0  0
 16 17  1  0  0  0  0
 17 18  4  0  0  0  0
 18 19  4  0  0  0  0
 19 20  4  0  0  0  0
 20 21  1  0  0  0  0
 20 22  4  0  0  0  0
 22 23  4  0  0  0  0
 23 24  1  0  0  0  0
 23 25  4  0  0  0  0
 25 26  4  0  0  0  0
 26 27  4  0  0  0  0
 17 27  4  0  0  0  0
 22 27  4  0  0  0  0
 16 28  1  0  0  0  0
 13 28  1  0  0  0  0
  9 29  4  0  0  0  0
 29 30  1  0  0  0  0
 29 31  4  0  0  0  0
  6 31  4  0  0  0  0
  5 32  4  0  0  0  0
  2 32  4  0  0  0  0
 32 33  2  0  0  0  0
M  END
>  <CdId>
358393

>  <Mol Weight>
489.315

>  <Formula>
C20H18Cl2N8O3

>  <cmpd_chemblid>
CHEMBL4069082

>  <std_type>
Ki

>  <std_value>
7.5

>  <std_unit>
nM

>  <target_id>
CHEMBL2016

>  <target_name>
Coagulation factor IX

>  <organism>
Homo sapiens

>  <target_type>
SINGLE PROTEIN

$$$$

  Mrv0541 08052111042D          

 43 47  0  0  1  0            999 V2000
    5.7750   -2.2539    0.0000 C   0  0  0  0  0  0  0  0  0  0  0  0
    5.3625   -1.5395    0.0000 O   0  0  0  0  0  0  0  0  0  0  0  0
    4.5375   -1.5395    0.0000 C   0  0  0  0  0  0  0  0  0  0  0  0
    4.1250   -2.2539    0.0000 O   0  0  0  0  0  0  0  0  0  0  0  0
    4.1250   -0.8250    0.0000 N   0  0  0  0  0  0  0  0  0  0  0  0
    3.3000   -0.8250    0.0000 C   0  0  0  0  0  0  0  0  0  0  0  0
    2.8875   -0.1105    0.0000 C   0  0  0  0  0  0  0  0  0  0  0  0
    2.0625   -0.1105    0.0000 C   0  0  0  0  0  0  0  0  0  0  0  0
    1.6500   -0.8250    0.0000 C   0  0  0  0  0  0  0  0  0  0  0  0
    2.0625   -1.5395    0.0000 C   0  0  0  0  0  0  0  0  0  0  0  0
    2.8875   -1.5395    0.0000 C   0  0  0  0  0  0  0  0  0  0  0  0
    3.3000   -2.2539    0.0000 I   0  0  0  0  0  0  0  0  0  0  0  0
    0.8250   -0.8250    0.0000 C   0  0  0  0  0  0  0  0  0  0  0  0
    0.4125   -1.5395    0.0000 C   0  0  0  0  0  0  0  0  0  0  0  0
   -0.4125   -1.5395    0.0000 C   0  0  0  0  0  0  0  0  0  0  0  0
   -0.8250   -0.8250    0.0000 N   0  0  0  0  0  0  0  0  0  0  0  0
   -0.4125   -0.1105    0.0000 C   0  0  0  0  0  0  0  0  0  0  0  0
    0.4125   -0.1105    0.0000 C   0  0  0  0  0  0  0  0  0  0  0  0
   -0.8250    0.6039    0.0000 C   0  0  1  0  0  0  0  0  0  0  0  0
   -1.6500    0.6039    0.0000 N   0  0  0  0  0  0  0  0  0  0  0  0
   -2.0625   -0.1105    0.0000 C   0  0  0  0  0  0  0  0  0  0  0  0
   -2.8875   -0.1105    0.0000 C   0  0  0  0  0  0  0  0  0  0  0  0
   -3.3000    0.6039    0.0000 C   0  0  0  0  0  0  0  0  0  0  0  0
   -4.1250    0.6039    0.0000 C   0  0  0  0  0  0  0  0  0  0  0  0
   -4.5375   -0.1105    0.0000 C   0  0  0  0  0  0  0  0  0  0  0  0
   -4.1250   -0.8250    0.0000 F   0  0  0  0  0  0  0  0  0  0  0  0
   -5.3625   -0.1105    0.0000 C   0  0  0  0  0  0  0  0  0  0  0  0
   -5.7750    0.6039    0.0000 C   0  0  0  0  0  0  0  0  0  0  0  0
   -5.3625    1.3184    0.0000 C   0  0  0  0  0  0  0  0  0  0  0  0
   -5.7750    2.0329    0.0000 Cl  0  0  0  0  0  0  0  0  0  0  0  0
   -4.5375    1.3184    0.0000 C   0  0  0  0  0  0  0  0  0  0  0  0
   -4.1250    2.0329    0.0000 F   0  0  0  0  0  0  0  0  0  0  0  0
   -2.8875    1.3184    0.0000 C   0  0  0  0  0  0  0  0  0  0  0  0
   -2.0625    1.3184    0.0000 C   0  0  0  0  0  0  0  0  0  0  0  0
   -1.6500    2.0329    0.0000 O   0  0  0  0  0  0  0  0  0  0  0  0
   -0.4125    1.3184    0.0000 C   0  0  0  0  0  0  0  0  0  0  0  0
    0.4125    1.3184    0.0000 C   0  0  0  0  0  0  0  0  0  0  0  0
    0.8250    2.0329    0.0000 C   0  0  0  0  0  0  0  0  0  0  0  0
    1.6500    2.0329    0.0000 C   0  0  1  0  0  0  0  0  0  0  0  0
    2.0625    2.7474    0.0000 C   0  0  0  0  0  0  0  0  0  0  0  0
    2.0625    1.3184    0.0000 C   0  0  0  0  0  0  0  0  0  0  0  0
    2.8875    1.3184    0.0000 O   0  0  0  0  0  0  0  0  0  0  0  0
    1.6500    0.6039    0.0000 N   0  0  0  0  0  0  0  0  0  0  0  0
  1  2  1  0  0  0  0
  2  3  1  0  0  0  0
  3  4  2  0  0  0  0
  3  5  1  0  0  0  0
  5  6  1  0  0  0  0
  6  7  4  0  0  0  0
  7  8  4  0  0  0  0
  8  9  4  0  0  0  0
  9 10  4  0  0  0  0
 10 11  4  0  0  0  0
  6 11  4  0  0  0  0
 11 12  1  0  0  0  0
  9 13  1  0  0  0  0
 13 14  4  0  0  0  0
 14 15  4  0  0  0  0
 15 16  4  0  0  0  0
 16 17  4  0  0  0  0
 17 18  4  0  0  0  0
 13 18  4  0  0  0  0
 17 19  1  0  0  0  0
 19 20  1  1  0  0  0
 20 21  1  0  0  0  0
 21 22  1  0  0  0  0
 22 23  1  0  0  0  0
 23 24  1  0  0  0  0
 24 25  4  0  0  0  0
 25 26  1  0  0  0  0
 25 27  4  0  0  0  0
 27 28  4  0  0  0  0
 28 29  4  0  0  0  0
 29 30  1  0  0  0  0
 29 31  4  0  0  0  0
 24 31  4  0  0  0  0
 31 32  1  0  0  0  0
 23 33  2  0  0  0  0
 33 34  1  0  0  0  0
 20 34  1  0  0  0  0
 34 35  2  0  0  0  0
 19 36  1  0  0  0  0
 36 37  1  0  0  0  0
 37 38  1  0  0  0  0
 38 39  1  0  0  0  0
 39 40  1  1  0  0  0
 39 41  1  0  0  0  0
 41 42  2  0  0  0  0
 41 43  1  0  0  0  0
  8 43  1  0  0  0  0
M  END
>  <CdId>
358394

>  <Mol Weight>
720.933

>  <Formula>
C31H28ClF2IN4O4

>  <cmpd_chemblid>
CHEMBL4115088

>  <std_type>
Ki

>  <std_value>
195.9

>  <std_unit>
nM

>  <target_id>
CHEMBL2016

>  <target_name>
Coagulation factor IX

>  <organism>
Homo sapiens

>  <target_type>
SINGLE PROTEIN

$$$$

  Mrv0541 08052111042D          

 38 43  0  0  0  0            999 V2000
    4.2010   -5.1401    0.0000 N   0  0  0  0  0  0  0  0  0  0  0  0
    3.3760   -5.1401    0.0000 C   0  0  0  0  0  0  0  0  0  0  0  0
    2.9635   -4.4256    0.0000 N   0  0  0  0  0  0  0  0  0  0  0  0
    2.9635   -5.8546    0.0000 C   0  0  0  0  0  0  0  0  0  0  0  0
    3.3760   -6.5690    0.0000 C   0  0  0  0  0  0  0  0  0  0  0  0
    2.9635   -7.2835    0.0000 C   0  0  0  0  0  0  0  0  0  0  0  0
    2.1385   -7.2835    0.0000 C   0  0  0  0  0  0  0  0  0  0  0  0
    1.7260   -6.5690    0.0000 C   0  0  0  0  0  0  0  0  0  0  0  0
    0.9010   -6.5690    0.0000 N   0  0  0  0  0  0  0  0  0  0  0  0
    0.4161   -7.2365    0.0000 N   0  0  0  0  0  0  0  0  0  0  0  0
   -0.3686   -6.9815    0.0000 C   0  0  0  0  0  0  0  0  0  0  0  0
   -1.0360   -7.4664    0.0000 C   0  0  0  0  0  0  0  0  0  0  0  0
   -1.7897   -7.1309    0.0000 N   0  0  0  0  0  0  0  0  0  0  0  0
   -2.5041   -7.5434    0.0000 C   0  0  0  0  0  0  0  0  0  0  0  0
   -3.1172   -6.9914    0.0000 C   0  0  0  0  0  0  0  0  0  0  0  0
   -2.7817   -6.2377    0.0000 N   0  0  0  0  0  0  0  0  0  0  0  0
   -1.9612   -6.3239    0.0000 N   0  0  0  0  0  0  0  0  0  0  0  0
   -0.3686   -6.1565    0.0000 C   0  0  0  0  0  0  0  0  0  0  0  0
    0.4161   -5.9016    0.0000 C   0  0  0  0  0  0  0  0  0  0  0  0
    0.6710   -5.1170    0.0000 C   0  0  0  0  0  0  0  0  0  0  0  0
    1.4780   -4.9454    0.0000 O   0  0  0  0  0  0  0  0  0  0  0  0
    0.1190   -4.5039    0.0000 N   0  0  0  0  0  0  0  0  0  0  0  0
    0.3739   -3.7192    0.0000 C   0  0  0  0  0  0  0  0  0  0  0  0
   -0.1781   -3.1062    0.0000 C   0  0  0  0  0  0  0  0  0  0  0  0
    0.0768   -2.3215    0.0000 C   0  0  0  0  0  0  0  0  0  0  0  0
    0.8838   -2.1500    0.0000 C   0  0  0  0  0  0  0  0  0  0  0  0
    1.1387   -1.3654    0.0000 N   0  0  0  0  0  0  0  0  0  0  0  0
    0.6538   -0.6979    0.0000 C   0  0  0  0  0  0  0  0  0  0  0  0
    1.1387   -0.0305    0.0000 N   0  0  0  0  0  0  0  0  0  0  0  0
    1.9233   -0.2854    0.0000 C   0  0  0  0  0  0  0  0  0  0  0  0
    2.6378    0.1271    0.0000 C   0  0  0  0  0  0  0  0  0  0  0  0
    3.3523   -0.2854    0.0000 C   0  0  0  0  0  0  0  0  0  0  0  0
    3.3523   -1.1104    0.0000 C   0  0  0  0  0  0  0  0  0  0  0  0
    2.6378   -1.5229    0.0000 C   0  0  0  0  0  0  0  0  0  0  0  0
    1.9233   -1.1104    0.0000 C   0  0  0  0  0  0  0  0  0  0  0  0
    1.4358   -2.7631    0.0000 C   0  0  0  0  0  0  0  0  0  0  0  0
    1.1809   -3.5477    0.0000 C   0  0  0  0  0  0  0  0  0  0  0  0
    2.1385   -5.8546    0.0000 C   0  0  0  0  0  0  0  0  0  0  0  0
  1  2  2  0  0  0  0
  2  3  1  0  0  0  0
  2  4  1  0  0  0  0
  4  5  4  0  0  0  0
  5  6  4  0  0  0  0
  6  7  4  0  0  0  0
  7  8  4  0  0  0  0
  8  9  1  0  0  0  0
  9 10  4  0  0  0  0
 10 11  4  0  0  0  0
 11 12  1  0  0  0  0
 12 13  1  0  0  0  0
 13 14  4  0  0  0  0
 14 15  4  0  0  0  0
 15 16  4  0  0  0  0
 16 17  4  0  0  0  0
 13 17  4  0  0  0  0
 11 18  4  0  0  0  0
 18 19  4  0  0  0  0
  9 19  4  0  0  0  0
 19 20  1  0  0  0  0
 20 21  2  0  0  0  0
 20 22  1  0  0  0  0
 22 23  1  0  0  0  0
 23 24  4  0  0  0  0
 24 25  4  0  0  0  0
 25 26  4  0  0  0  0
 26 27  1  0  0  0  0
 27 28  4  0  0  0  0
 28 29  4  0  0  0  0
 29 30  4  0  0  0  0
 30 31  4  0  0  0  0
 31 32  4  0  0  0  0
 32 33  4  0  0  0  0
 33 34  4  0  0  0  0
 34 35  4  0  0  0  0
 30 35  4  0  0  0  0
 27 35  4  0  0  0  0
 26 36  4  0  0  0  0
 36 37  4  0  0  0  0
 23 37  4  0  0  0  0
  8 38  4  0  0  0  0
  4 38  4  0  0  0  0
M  END
>  <CdId>
358395

>  <Mol Weight>
502.53

>  <Formula>
C27H22N10O

>  <cmpd_chemblid>
CHEMBL185232

>  <std_type>
Ki

>  <std_value>
20.0

>  <std_unit>
nM

>  <target_id>
CHEMBL2016

>  <target_name>
Coagulation factor IX

>  <organism>
Homo sapiens

>  <target_type>
SINGLE PROTEIN

$$$$

  Mrv0541 08052111042D          

 32 35  0  0  0  0            999 V2000
   -4.2696   -3.9038    0.0000 C   0  0  0  0  0  0  0  0  0  0  0  0
   -3.4491   -3.9900    0.0000 C   0  0  0  0  0  0  0  0  0  0  0  0
   -2.8971   -3.3769    0.0000 C   0  0  0  0  0  0  0  0  0  0  0  0
   -2.1434   -3.7125    0.0000 C   0  0  0  0  0  0  0  0  0  0  0  0
   -1.4289   -3.3000    0.0000 N   0  0  0  0  0  0  0  0  0  0  0  0
   -0.7145   -3.7125    0.0000 C   0  0  0  0  0  0  0  0  0  0  0  0
   -0.7145   -4.5375    0.0000 O   0  0  0  0  0  0  0  0  0  0  0  0
    0.0000   -3.3000    0.0000 O   0  0  0  0  0  0  0  0  0  0  0  0
    0.7145   -3.7125    0.0000 C   0  0  0  0  0  0  0  0  0  0  0  0
    1.4289   -3.3000    0.0000 C   0  0  0  0  0  0  0  0  0  0  0  0
    2.1434   -3.7125    0.0000 O   0  0  0  0  0  0  0  0  0  0  0  0
    2.8579   -3.3000    0.0000 C   0  0  0  0  0  0  0  0  0  0  0  0
    2.8579   -2.4750    0.0000 C   0  0  0  0  0  0  0  0  0  0  0  0
    3.5724   -2.0625    0.0000 C   0  0  0  0  0  0  0  0  0  0  0  0
    4.2868   -2.4750    0.0000 C   0  0  0  0  0  0  0  0  0  0  0  0
    4.2868   -3.3000    0.0000 C   0  0  0  0  0  0  0  0  0  0  0  0
    4.8999   -3.8520    0.0000 S   0  0  0  0  0  0  0  0  0  0  0  0
    4.5644   -4.6057    0.0000 C   0  0  0  0  0  0  0  0  0  0  0  0
    4.9769   -5.3202    0.0000 C   0  0  0  0  0  0  0  0  0  0  0  0
    5.8019   -5.3202    0.0000 N   0  0  0  0  0  0  0  0  0  0  0  0
    4.5644   -6.0346    0.0000 N   0  0  0  0  0  0  0  0  0  0  0  0
    3.7439   -4.5195    0.0000 C   0  0  0  0  0  0  0  0  0  0  0  0
    3.5724   -3.7125    0.0000 C   0  0  0  0  0  0  0  0  0  0  0  0
    1.4289   -2.4750    0.0000 C   0  0  0  0  0  0  0  0  0  0  0  0
    0.7145   -2.0625    0.0000 C   0  0  0  0  0  0  0  0  0  0  0  0
    0.7145   -1.2375    0.0000 C   0  0  0  0  0  0  0  0  0  0  0  0
    1.4289   -0.8250    0.0000 C   0  0  0  0  0  0  0  0  0  0  0  0
    2.1434   -1.2375    0.0000 C   0  0  0  0  0  0  0  0  0  0  0  0
    2.1434   -2.0625    0.0000 C   0  0  0  0  0  0  0  0  0  0  0  0
   -2.2296   -4.5330    0.0000 N   0  0  0  0  0  0  0  0  0  0  0  0
   -1.6166   -5.0850    0.0000 C   0  0  0  0  0  0  0  0  0  0  0  0
   -3.0366   -4.7045    0.0000 N   0  0  0  0  0  0  0  0  0  0  0  0
  1  2  1  0  0  0  0
  2  3  4  0  0  0  0
  3  4  4  0  0  0  0
  4  5  1  0  0  0  0
  5  6  1  0  0  0  0
  6  7  2  0  0  0  0
  6  8  1  0  0  0  0
  8  9  1  0  0  0  0
  9 10  1  0  0  0  0
 10 11  1  0  0  0  0
 11 12  1  0  0  0  0
 12 13  4  0  0  0  0
 13 14  4  0  0  0  0
 14 15  4  0  0  0  0
 15 16  4  0  0  0  0
 16 17  4  0  0  0  0
 17 18  4  0  0  0  0
 18 19  1  0  0  0  0
 19 20  2  0  0  0  0
 19 21  1  0  0  0  0
 18 22  4  0  0  0  0
 22 23  4  0  0  0  0
 12 23  4  0  0  0  0
 16 23  4  0  0  0  0
 10 24  1  0  0  0  0
 24 25  4  0  0  0  0
 25 26  4  0  0  0  0
 26 27  4  0  0  0  0
 27 28  4  0  0  0  0
 28 29  4  0  0  0  0
 24 29  4  0  0  0  0
  4 30  4  0  0  0  0
 30 31  1  0  0  0  0
 30 32  4  0  0  0  0
  2 32  4  0  0  0  0
M  END
>  <CdId>
358396

>  <Mol Weight>
449.525

>  <Formula>
C23H23N5O3S

>  <cmpd_chemblid>
CHEMBL606177

>  <std_type>
Ki

>  <std_value>
10.0

>  <std_unit>
nM

>  <target_id>
CHEMBL2016

>  <target_name>
Coagulation factor IX

>  <organism>
Homo sapiens

>  <target_type>
SINGLE PROTEIN

$$$$

  Mrv0541 08052111042D          

 42 47  0  0  1  0            999 V2000
    7.4317    4.3103    0.0000 C   0  0  0  0  0  0  0  0  0  0  0  0
    7.7017    3.5307    0.0000 C   0  0  2  0  0  0  0  0  0  0  0  0
    8.5119    3.3748    0.0000 C   0  0  0  0  0  0  0  0  0  0  0  0
    8.7819    2.5952    0.0000 C   0  0  0  0  0  0  0  0  0  0  0  0
    9.5921    2.4393    0.0000 C   0  0  0  0  0  0  0  0  0  0  0  0
    9.8621    1.6598    0.0000 C   0  0  2  0  0  0  0  0  0  0  0  0
   10.6722    1.5039    0.0000 N   0  0  0  0  0  0  0  0  0  0  0  0
   11.2123    2.1275    0.0000 C   0  0  0  0  0  0  0  0  0  0  0  0
   12.0225    1.9716    0.0000 C   0  0  0  0  0  0  0  0  0  0  0  0
   12.2925    1.1921    0.0000 C   0  0  0  0  0  0  0  0  0  0  0  0
   13.1026    1.0361    0.0000 C   0  0  0  0  0  0  0  0  0  0  0  0
   13.6427    1.6598    0.0000 C   0  0  0  0  0  0  0  0  0  0  0  0
   13.3727    2.4393    0.0000 F   0  0  0  0  0  0  0  0  0  0  0  0
   14.4529    1.5039    0.0000 C   0  0  0  0  0  0  0  0  0  0  0  0
   14.7229    0.7243    0.0000 C   0  0  0  0  0  0  0  0  0  0  0  0
   14.1828    0.1007    0.0000 C   0  0  0  0  0  0  0  0  0  0  0  0
   14.4529   -0.6789    0.0000 Cl  0  0  0  0  0  0  0  0  0  0  0  0
   13.3727    0.2566    0.0000 C   0  0  0  0  0  0  0  0  0  0  0  0
   12.8326   -0.3671    0.0000 F   0  0  0  0  0  0  0  0  0  0  0  0
   11.7524    0.5684    0.0000 C   0  0  0  0  0  0  0  0  0  0  0  0
   10.9423    0.7243    0.0000 C   0  0  0  0  0  0  0  0  0  0  0  0
   10.4022    0.1007    0.0000 O   0  0  0  0  0  0  0  0  0  0  0  0
    9.3220    1.0361    0.0000 C   0  0  0  0  0  0  0  0  0  0  0  0
    8.5119    1.1921    0.0000 C   0  0  0  0  0  0  0  0  0  0  0  0
    7.9718    0.5684    0.0000 C   0  0  0  0  0  0  0  0  0  0  0  0
    8.2418   -0.2111    0.0000 C   0  0  0  0  0  0  0  0  0  0  0  0
    9.0520   -0.3671    0.0000 C   0  0  0  0  0  0  0  0  0  0  0  0
    9.5921    0.2566    0.0000 N   0  0  0  0  0  0  0  0  0  0  0  0
    7.1617    0.7243    0.0000 C   0  0  0  0  0  0  0  0  0  0  0  0
    6.6216    0.1007    0.0000 C   0  0  0  0  0  0  0  0  0  0  0  0
    5.8114    0.2566    0.0000 C   0  0  0  0  0  0  0  0  0  0  0  0
    5.2713   -0.3671    0.0000 C   0  0  0  0  0  0  0  0  0  0  0  0
    4.4612   -0.2111    0.0000 C   0  0  0  0  0  0  0  0  0  0  0  0
    4.1912    0.5684    0.0000 C   0  0  0  0  0  0  0  0  0  0  0  0
    3.3810    0.7243    0.0000 O   0  0  0  0  0  0  0  0  0  0  0  0
    4.7313    1.1921    0.0000 N   0  0  0  0  0  0  0  0  0  0  0  0
    5.5414    1.0361    0.0000 C   0  0  0  0  0  0  0  0  0  0  0  0
    6.0815    1.6598    0.0000 C   0  0  0  0  0  0  0  0  0  0  0  0
    6.8916    1.5039    0.0000 C   0  0  0  0  0  0  0  0  0  0  0  0
    7.4317    2.1275    0.0000 N   0  0  0  0  0  0  0  0  0  0  0  0
    7.1617    2.9071    0.0000 C   0  0  0  0  0  0  0  0  0  0  0  0
    6.3515    3.0630    0.0000 O   0  0  0  0  0  0  0  0  0  0  0  0
  2  1  1  6  0  0  0
  2  3  1  0  0  0  0
  3  4  1  0  0  0  0
  4  5  1  0  0  0  0
  5  6  1  0  0  0  0
  6  7  1  6  0  0  0
  7  8  1  0  0  0  0
  8  9  1  0  0  0  0
  9 10  1  0  0  0  0
 10 11  1  0  0  0  0
 11 12  4  0  0  0  0
 12 13  1  0  0  0  0
 12 14  4  0  0  0  0
 14 15  4  0  0  0  0
 15 16  4  0  0  0  0
 16 17  1  0  0  0  0
 16 18  4  0  0  0  0
 11 18  4  0  0  0  0
 18 19  1  0  0  0  0
 10 20  2  0  0  0  0
 20 21  1  0  0  0  0
  7 21  1  0  0  0  0
 21 22  2  0  0  0  0
  6 23  1  0  0  0  0
 23 24  4  0  0  0  0
 24 25  4  0  0  0  0
 25 26  4  0  0  0  0
 26 27  4  0  0  0  0
 27 28  4  0  0  0  0
 23 28  4  0  0  0  0
 25 29  1  0  0  0  0
 29 30  4  0  0  0  0
 30 31  4  0  0  0  0
 31 32  4  0  0  0  0
 32 33  4  0  0  0  0
 33 34  4  0  0  0  0
 34 35  2  0  0  0  0
 34 36  4  0  0  0  0
 36 37  4  0  0  0  0
 31 37  4  0  0  0  0
 37 38  4  0  0  0  0
 38 39  4  0  0  0  0
 29 39  4  0  0  0  0
 39 40  1  0  0  0  0
 40 41  1  0  0  0  0
  2 41  1  0  0  0  0
 41 42  2  0  0  0  0
M  STY  1   1 DAT
M  SAL   1  1  36
M  SDT   1 MRV_IMPLICIT_H                                        
M  SDD   1     0.0000    0.0000    DR    ALL  0       0  
M  SED   1 IMPL_H1
M  END
>  <CdId>
358397

>  <Mol Weight>
589.032

>  <Formula>
C32H27ClF2N4O3

>  <cmpd_chemblid>
CHEMBL4109665

>  <std_type>
Ki

>  <std_value>
0.31

>  <std_unit>
nM

>  <target_id>
CHEMBL2016

>  <target_name>
Coagulation factor IX

>  <organism>
Homo sapiens

>  <target_type>
SINGLE PROTEIN

$$$$

  Mrv0541 08052111042D          

 33 37  0  0  0  0            999 V2000
    1.6684   -2.4049    0.0000 C   0  0  0  0  0  0  0  0  0  0  0  0
    0.8838   -2.1500    0.0000 C   0  0  0  0  0  0  0  0  0  0  0  0
    0.0992   -1.8951    0.0000 C   0  0  0  0  0  0  0  0  0  0  0  0
    0.6288   -2.9346    0.0000 C   0  0  0  0  0  0  0  0  0  0  0  0
    1.1809   -3.5477    0.0000 O   0  0  0  0  0  0  0  0  0  0  0  0
   -0.1781   -3.1062    0.0000 N   0  0  0  0  0  0  0  0  0  0  0  0
   -0.4331   -3.8908    0.0000 C   0  0  0  0  0  0  0  0  0  0  0  0
    0.1190   -4.5039    0.0000 C   0  0  0  0  0  0  0  0  0  0  0  0
   -0.1360   -5.2885    0.0000 C   0  0  0  0  0  0  0  0  0  0  0  0
   -0.9429   -5.4600    0.0000 C   0  0  0  0  0  0  0  0  0  0  0  0
   -1.1979   -6.2446    0.0000 N   0  0  0  0  0  0  0  0  0  0  0  0
   -0.7130   -6.9121    0.0000 C   0  0  0  0  0  0  0  0  0  0  0  0
   -1.1979   -7.5795    0.0000 N   0  0  0  0  0  0  0  0  0  0  0  0
   -1.9825   -7.3246    0.0000 C   0  0  0  0  0  0  0  0  0  0  0  0
   -2.6970   -7.7371    0.0000 C   0  0  0  0  0  0  0  0  0  0  0  0
   -3.4114   -7.3246    0.0000 C   0  0  0  0  0  0  0  0  0  0  0  0
   -3.4114   -6.4996    0.0000 C   0  0  0  0  0  0  0  0  0  0  0  0
   -2.6970   -6.0871    0.0000 C   0  0  0  0  0  0  0  0  0  0  0  0
   -1.9825   -6.4996    0.0000 C   0  0  0  0  0  0  0  0  0  0  0  0
   -1.4950   -4.8469    0.0000 C   0  0  0  0  0  0  0  0  0  0  0  0
   -1.2400   -4.0623    0.0000 C   0  0  0  0  0  0  0  0  0  0  0  0
    1.1387   -1.3654    0.0000 C   0  0  0  0  0  0  0  0  0  0  0  0
    0.6538   -0.6979    0.0000 C   0  0  0  0  0  0  0  0  0  0  0  0
    1.1387   -0.0305    0.0000 N   0  0  0  0  0  0  0  0  0  0  0  0
    1.9233   -0.2854    0.0000 C   0  0  0  0  0  0  0  0  0  0  0  0
    2.6378    0.1271    0.0000 C   0  0  0  0  0  0  0  0  0  0  0  0
    3.3523   -0.2854    0.0000 C   0  0  0  0  0  0  0  0  0  0  0  0
    3.3523   -1.1104    0.0000 C   0  0  0  0  0  0  0  0  0  0  0  0
    4.0668   -1.5229    0.0000 C   0  0  0  0  0  0  0  0  0  0  0  0
    4.7812   -1.1104    0.0000 N   0  0  0  0  0  0  0  0  0  0  0  0
    4.0668   -2.3479    0.0000 N   0  0  0  0  0  0  0  0  0  0  0  0
    2.6378   -1.5229    0.0000 C   0  0  0  0  0  0  0  0  0  0  0  0
    1.9233   -1.1104    0.0000 C   0  0  0  0  0  0  0  0  0  0  0  0
  1  2  1  0  0  0  0
  2  3  1  0  0  0  0
  2  4  1  0  0  0  0
  4  5  2  0  0  0  0
  4  6  1  0  0  0  0
  6  7  1  0  0  0  0
  7  8  4  0  0  0  0
  8  9  4  0  0  0  0
  9 10  4  0  0  0  0
 10 11  1  0  0  0  0
 11 12  4  0  0  0  0
 12 13  4  0  0  0  0
 13 14  4  0  0  0  0
 14 15  4  0  0  0  0
 15 16  4  0  0  0  0
 16 17  4  0  0  0  0
 17 18  4  0  0  0  0
 18 19  4  0  0  0  0
 14 19  4  0  0  0  0
 11 19  4  0  0  0  0
 10 20  4  0  0  0  0
 20 21  4  0  0  0  0
  7 21  4  0  0  0  0
  2 22  1  0  0  0  0
 22 23  4  0  0  0  0
 23 24  4  0  0  0  0
 24 25  4  0  0  0  0
 25 26  4  0  0  0  0
 26 27  4  0  0  0  0
 27 28  4  0  0  0  0
 28 29  1  0  0  0  0
 29 30  2  0  0  0  0
 29 31  1  0  0  0  0
 28 32  4  0  0  0  0
 32 33  4  0  0  0  0
 22 33  4  0  0  0  0
 25 33  4  0  0  0  0
M  STY  1   1 DAT
M  SAL   1  1  24
M  SDT   1 MRV_IMPLICIT_H                                        
M  SDD   1     0.0000    0.0000    DR    ALL  0       0  
M  SED   1 IMPL_H1
M  END
>  <CdId>
358398

>  <Mol Weight>
436.5084

>  <Formula>
C26H24N6O

>  <cmpd_chemblid>
CHEMBL364580

>  <std_type>
Ki

>  <std_value>
750.0

>  <std_unit>
nM

>  <target_id>
CHEMBL2016

>  <target_name>
Coagulation factor IX

>  <organism>
Homo sapiens

>  <target_type>
SINGLE PROTEIN

$$$$

  Mrv0541 08052111042D          

 37 41  0  0  1  0            999 V2000
   10.2968    5.3311    0.0000 C   0  0  0  0  0  0  0  0  0  0  0  0
    9.9613    4.5775    0.0000 C   0  0  0  0  0  0  0  0  0  0  0  0
   10.3738    3.8630    0.0000 N   0  0  0  0  0  0  0  0  0  0  0  0
    9.8217    3.2499    0.0000 C   0  0  0  0  0  0  0  0  0  0  0  0
    9.0681    3.5854    0.0000 N   0  0  0  0  0  0  0  0  0  0  0  0
    8.3536    3.1729    0.0000 C   0  0  0  0  0  0  0  0  0  0  0  0
    8.3536    2.3479    0.0000 C   0  0  0  0  0  0  0  0  0  0  0  0
    7.6391    1.9354    0.0000 C   0  0  0  0  0  0  0  0  0  0  0  0
    7.6391    1.1104    0.0000 Cl  0  0  0  0  0  0  0  0  0  0  0  0
    6.9246    2.3479    0.0000 C   0  0  0  0  0  0  0  0  0  0  0  0
    6.2102    1.9354    0.0000 C   0  0  0  0  0  0  0  0  0  0  0  0
    6.2102    1.1104    0.0000 O   0  0  0  0  0  0  0  0  0  0  0  0
    5.4957    2.3479    0.0000 N   0  0  0  0  0  0  0  0  0  0  0  0
    4.7812    1.9354    0.0000 C   0  0  0  0  0  0  0  0  0  0  0  0
    4.0668    2.3479    0.0000 C   0  0  1  0  0  0  0  0  0  0  0  0
    4.0668    3.1729    0.0000 C   0  0  0  0  0  0  0  0  0  0  0  0
    3.3523    3.5854    0.0000 C   0  0  0  0  0  0  0  0  0  0  0  0
    3.3523    4.4104    0.0000 C   0  0  0  0  0  0  0  0  0  0  0  0
    4.0668    4.8229    0.0000 C   0  0  0  0  0  0  0  0  0  0  0  0
    4.7812    4.4104    0.0000 C   0  0  0  0  0  0  0  0  0  0  0  0
    5.4957    4.8229    0.0000 F   0  0  0  0  0  0  0  0  0  0  0  0
    4.7812    3.5854    0.0000 C   0  0  0  0  0  0  0  0  0  0  0  0
    3.3523    1.9354    0.0000 C   0  0  0  0  0  0  0  0  0  0  0  0
    3.3523    1.1104    0.0000 C   0  0  0  0  0  0  0  0  0  0  0  0
    2.6378    0.6979    0.0000 C   0  0  0  0  0  0  0  0  0  0  0  0
    2.6378   -0.1271    0.0000 F   0  0  0  0  0  0  0  0  0  0  0  0
    1.9233    1.1104    0.0000 C   0  0  0  0  0  0  0  0  0  0  0  0
    1.1387    0.8555    0.0000 N   0  0  0  0  0  0  0  0  0  0  0  0
    0.6538    1.5229    0.0000 C   0  0  0  0  0  0  0  0  0  0  0  0
   -0.1712    1.5229    0.0000 C   0  0  0  0  0  0  0  0  0  0  0  0
    1.1387    2.1904    0.0000 N   0  0  0  0  0  0  0  0  0  0  0  0
    1.9233    1.9354    0.0000 C   0  0  0  0  0  0  0  0  0  0  0  0
    2.6378    2.3479    0.0000 C   0  0  0  0  0  0  0  0  0  0  0  0
    6.9246    3.1729    0.0000 C   0  0  0  0  0  0  0  0  0  0  0  0
    6.2102    3.5854    0.0000 Cl  0  0  0  0  0  0  0  0  0  0  0  0
    7.6391    3.5854    0.0000 C   0  0  0  0  0  0  0  0  0  0  0  0
    9.1543    4.4059    0.0000 N   0  0  0  0  0  0  0  0  0  0  0  0
  1  2  1  0  0  0  0
  2  3  4  0  0  0  0
  3  4  4  0  0  0  0
  4  5  4  0  0  0  0
  5  6  1  0  0  0  0
  6  7  4  0  0  0  0
  7  8  4  0  0  0  0
  8  9  1  0  0  0  0
  8 10  4  0  0  0  0
 10 11  1  0  0  0  0
 11 12  2  0  0  0  0
 11 13  1  0  0  0  0
 13 14  1  0  0  0  0
 14 15  1  0  0  0  0
 15 16  1  0  0  0  0
 16 17  4  0  0  0  0
 17 18  4  0  0  0  0
 18 19  4  0  0  0  0
 19 20  4  0  0  0  0
 20 21  1  0  0  0  0
 20 22  4  0  0  0  0
 16 22  4  0  0  0  0
 15 23  1  6  0  0  0
 23 24  4  0  0  0  0
 24 25  4  0  0  0  0
 25 26  1  0  0  0  0
 25 27  4  0  0  0  0
 27 28  4  0  0  0  0
 28 29  4  0  0  0  0
 29 30  1  0  0  0  0
 29 31  4  0  0  0  0
 31 32  4  0  0  0  0
 27 32  4  0  0  0  0
 32 33  4  0  0  0  0
 23 33  4  0  0  0  0
 10 34  4  0  0  0  0
 34 35  1  0  0  0  0
 34 36  4  0  0  0  0
  6 36  4  0  0  0  0
  5 37  4  0  0  0  0
  2 37  4  0  0  0  0
M  STY  1   1 DAT
M  SAL   1  1  28
M  SDT   1 MRV_IMPLICIT_H                                        
M  SDD   1     0.0000    0.0000    DR    ALL  0       0  
M  SED   1 IMPL_H1
M  END
>  <CdId>
358399

>  <Mol Weight>
541.379

>  <Formula>
C26H20Cl2F2N6O

>  <cmpd_chemblid>
CHEMBL3775211

>  <std_type>
Ki

>  <std_value>
10.6

>  <std_unit>
nM

>  <target_id>
CHEMBL2016

>  <target_name>
Coagulation factor IX

>  <organism>
Homo sapiens

>  <target_type>
SINGLE PROTEIN

$$$$

  Mrv0541 08052111042D          

 34 37  0  0  0  0            999 V2000
   -5.5750   -4.4850    0.0000 C   0  0  0  0  0  0  0  0  0  0  0  0
   -4.7545   -4.5712    0.0000 N   0  0  0  0  0  0  0  0  0  0  0  0
   -4.2696   -3.9038    0.0000 C   0  0  0  0  0  0  0  0  0  0  0  0
   -3.4491   -3.9900    0.0000 C   0  0  0  0  0  0  0  0  0  0  0  0
   -2.8971   -3.3769    0.0000 C   0  0  0  0  0  0  0  0  0  0  0  0
   -2.1434   -3.7125    0.0000 C   0  0  0  0  0  0  0  0  0  0  0  0
   -1.4289   -3.3000    0.0000 N   0  0  0  0  0  0  0  0  0  0  0  0
   -0.7145   -3.7125    0.0000 C   0  0  0  0  0  0  0  0  0  0  0  0
   -0.7145   -4.5375    0.0000 O   0  0  0  0  0  0  0  0  0  0  0  0
    0.0000   -3.3000    0.0000 O   0  0  0  0  0  0  0  0  0  0  0  0
    0.7145   -3.7125    0.0000 C   0  0  0  0  0  0  0  0  0  0  0  0
    1.4289   -3.3000    0.0000 C   0  0  0  0  0  0  0  0  0  0  0  0
    2.1434   -3.7125    0.0000 O   0  0  0  0  0  0  0  0  0  0  0  0
    2.8579   -3.3000    0.0000 C   0  0  0  0  0  0  0  0  0  0  0  0
    2.8579   -2.4750    0.0000 C   0  0  0  0  0  0  0  0  0  0  0  0
    3.5724   -2.0625    0.0000 C   0  0  0  0  0  0  0  0  0  0  0  0
    4.2868   -2.4750    0.0000 C   0  0  0  0  0  0  0  0  0  0  0  0
    4.2868   -3.3000    0.0000 C   0  0  0  0  0  0  0  0  0  0  0  0
    4.8999   -3.8520    0.0000 S   0  0  0  0  0  0  0  0  0  0  0  0
    4.5644   -4.6057    0.0000 C   0  0  0  0  0  0  0  0  0  0  0  0
    4.9769   -5.3202    0.0000 C   0  0  0  0  0  0  0  0  0  0  0  0
    5.8019   -5.3202    0.0000 N   0  0  0  0  0  0  0  0  0  0  0  0
    4.5644   -6.0346    0.0000 N   0  0  0  0  0  0  0  0  0  0  0  0
    3.7439   -4.5195    0.0000 C   0  0  0  0  0  0  0  0  0  0  0  0
    3.5724   -3.7125    0.0000 C   0  0  0  0  0  0  0  0  0  0  0  0
    1.4289   -2.4750    0.0000 C   0  0  0  0  0  0  0  0  0  0  0  0
    0.7145   -2.0625    0.0000 C   0  0  0  0  0  0  0  0  0  0  0  0
    0.7145   -1.2375    0.0000 C   0  0  0  0  0  0  0  0  0  0  0  0
    1.4289   -0.8250    0.0000 C   0  0  0  0  0  0  0  0  0  0  0  0
    2.1434   -1.2375    0.0000 C   0  0  0  0  0  0  0  0  0  0  0  0
    2.1434   -2.0625    0.0000 C   0  0  0  0  0  0  0  0  0  0  0  0
   -2.2296   -4.5330    0.0000 N   0  0  0  0  0  0  0  0  0  0  0  0
   -1.6166   -5.0850    0.0000 C   0  0  0  0  0  0  0  0  0  0  0  0
   -3.0366   -4.7045    0.0000 N   0  0  0  0  0  0  0  0  0  0  0  0
  1  2  1  0  0  0  0
  2  3  1  0  0  0  0
  3  4  1  0  0  0  0
  4  5  4  0  0  0  0
  5  6  4  0  0  0  0
  6  7  1  0  0  0  0
  7  8  1  0  0  0  0
  8  9  2  0  0  0  0
  8 10  1  0  0  0  0
 10 11  1  0  0  0  0
 11 12  1  0  0  0  0
 12 13  1  0  0  0  0
 13 14  1  0  0  0  0
 14 15  4  0  0  0  0
 15 16  4  0  0  0  0
 16 17  4  0  0  0  0
 17 18  4  0  0  0  0
 18 19  4  0  0  0  0
 19 20  4  0  0  0  0
 20 21  1  0  0  0  0
 21 22  2  0  0  0  0
 21 23  1  0  0  0  0
 20 24  4  0  0  0  0
 24 25  4  0  0  0  0
 14 25  4  0  0  0  0
 18 25  4  0  0  0  0
 12 26  1  0  0  0  0
 26 27  4  0  0  0  0
 27 28  4  0  0  0  0
 28 29  4  0  0  0  0
 29 30  4  0  0  0  0
 30 31  4  0  0  0  0
 26 31  4  0  0  0  0
  6 32  4  0  0  0  0
 32 33  1  0  0  0  0
 32 34  4  0  0  0  0
  4 34  4  0  0  0  0
M  END
>  <CdId>
358404

>  <Mol Weight>
478.567

>  <Formula>
C24H26N6O3S

>  <cmpd_chemblid>
CHEMBL601018

>  <std_type>
Ki

>  <std_value>
5.0

>  <std_unit>
nM

>  <target_id>
CHEMBL2016

>  <target_name>
Coagulation factor IX

>  <organism>
Homo sapiens

>  <target_type>
SINGLE PROTEIN

$$$$

  Mrv0541 08052111042D          

 28 31  0  0  0  0            999 V2000
    2.7845    0.6979    0.0000 C   0  0  0  0  0  0  0  0  0  0  0  0
    2.0701    1.1104    0.0000 C   0  0  0  0  0  0  0  0  0  0  0  0
    1.3556    0.6979    0.0000 C   0  0  0  0  0  0  0  0  0  0  0  0
    0.6411    1.1104    0.0000 C   0  0  0  0  0  0  0  0  0  0  0  0
   -0.1435    0.8555    0.0000 N   0  0  0  0  0  0  0  0  0  0  0  0
   -0.6284    1.5229    0.0000 C   0  0  0  0  0  0  0  0  0  0  0  0
   -1.4534    1.5229    0.0000 C   0  0  0  0  0  0  0  0  0  0  0  0
   -1.8659    0.8085    0.0000 C   0  0  0  0  0  0  0  0  0  0  0  0
   -2.6909    0.8085    0.0000 N   0  0  0  0  0  0  0  0  0  0  0  0
   -3.1034    0.0940    0.0000 C   0  0  0  0  0  0  0  0  0  0  0  0
   -2.6909   -0.6205    0.0000 O   0  0  0  0  0  0  0  0  0  0  0  0
   -3.9284    0.0940    0.0000 C   0  0  0  0  0  0  0  0  0  0  0  0
   -4.3409   -0.6205    0.0000 C   0  0  0  0  0  0  0  0  0  0  0  0
   -5.1659   -0.6205    0.0000 C   0  0  0  0  0  0  0  0  0  0  0  0
   -5.5784    0.0940    0.0000 C   0  0  0  0  0  0  0  0  0  0  0  0
   -6.4034    0.0940    0.0000 N   0  0  0  0  0  0  0  0  0  0  0  0
   -6.8884   -0.5734    0.0000 C   0  0  0  0  0  0  0  0  0  0  0  0
   -7.6730   -0.3185    0.0000 N   0  0  0  0  0  0  0  0  0  0  0  0
   -7.6730    0.5065    0.0000 N   0  0  0  0  0  0  0  0  0  0  0  0
   -6.8884    0.7614    0.0000 C   0  0  0  0  0  0  0  0  0  0  0  0
   -5.1659    0.8085    0.0000 C   0  0  0  0  0  0  0  0  0  0  0  0
   -4.3409    0.8085    0.0000 C   0  0  0  0  0  0  0  0  0  0  0  0
   -3.9284    1.5229    0.0000 Cl  0  0  0  0  0  0  0  0  0  0  0  0
   -0.1435    2.1904    0.0000 N   0  0  0  0  0  0  0  0  0  0  0  0
    0.6411    1.9354    0.0000 C   0  0  0  0  0  0  0  0  0  0  0  0
    1.3556    2.3479    0.0000 C   0  0  0  0  0  0  0  0  0  0  0  0
    2.0701    1.9354    0.0000 C   0  0  0  0  0  0  0  0  0  0  0  0
    2.7845    2.3479    0.0000 C   0  0  0  0  0  0  0  0  0  0  0  0
  1  2  1  0  0  0  0
  2  3  4  0  0  0  0
  3  4  4  0  0  0  0
  4  5  4  0  0  0  0
  5  6  4  0  0  0  0
  6  7  1  0  0  0  0
  7  8  1  0  0  0  0
  8  9  1  0  0  0  0
  9 10  1  0  0  0  0
 10 11  2  0  0  0  0
 10 12  1  0  0  0  0
 12 13  4  0  0  0  0
 13 14  4  0  0  0  0
 14 15  4  0  0  0  0
 15 16  1  0  0  0  0
 16 17  4  0  0  0  0
 17 18  4  0  0  0  0
 18 19  4  0  0  0  0
 19 20  4  0  0  0  0
 16 20  4  0  0  0  0
 15 21  4  0  0  0  0
 21 22  4  0  0  0  0
 12 22  4  0  0  0  0
 22 23  1  0  0  0  0
  6 24  4  0  0  0  0
 24 25  4  0  0  0  0
  4 25  4  0  0  0  0
 25 26  4  0  0  0  0
 26 27  4  0  0  0  0
  2 27  4  0  0  0  0
 27 28  1  0  0  0  0
M  STY  1   1 DAT
M  SAL   1  1  24
M  SDT   1 MRV_IMPLICIT_H                                        
M  SDD   1     0.0000    0.0000    DR    ALL  0       0  
M  SED   1 IMPL_H1
M  END
>  <CdId>
358405

>  <Mol Weight>
394.857

>  <Formula>
C20H19ClN6O

>  <cmpd_chemblid>
CHEMBL3423040

>  <std_type>
Ki

>  <std_value>
260.0

>  <std_unit>
nM

>  <target_id>
CHEMBL2016

>  <target_name>
Coagulation factor IX

>  <organism>
Homo sapiens

>  <target_type>
SINGLE PROTEIN

$$$$

  Mrv0541 08052111042D          

 27 29  0  0  0  0            999 V2000
   -2.1434   -4.5375    0.0000 C   0  0  0  0  0  0  0  0  0  0  0  0
   -1.4289   -4.9500    0.0000 C   0  0  0  0  0  0  0  0  0  0  0  0
   -0.7145   -4.5375    0.0000 N   0  0  0  0  0  0  0  0  0  0  0  0
    0.0000   -4.9500    0.0000 C   0  0  0  0  0  0  0  0  0  0  0  0
    0.0000   -5.7750    0.0000 O   0  0  0  0  0  0  0  0  0  0  0  0
    0.7145   -4.5375    0.0000 O   0  0  0  0  0  0  0  0  0  0  0  0
    1.4289   -4.9500    0.0000 C   0  0  0  0  0  0  0  0  0  0  0  0
    2.1434   -4.5375    0.0000 C   0  0  0  0  0  0  0  0  0  0  0  0
    2.8579   -4.9500    0.0000 O   0  0  0  0  0  0  0  0  0  0  0  0
    3.5724   -4.5375    0.0000 C   0  0  0  0  0  0  0  0  0  0  0  0
    3.5724   -3.7125    0.0000 C   0  0  0  0  0  0  0  0  0  0  0  0
    4.2868   -3.3000    0.0000 C   0  0  0  0  0  0  0  0  0  0  0  0
    5.0013   -3.7125    0.0000 C   0  0  0  0  0  0  0  0  0  0  0  0
    5.0013   -4.5375    0.0000 C   0  0  0  0  0  0  0  0  0  0  0  0
    5.6144   -5.0895    0.0000 S   0  0  0  0  0  0  0  0  0  0  0  0
    5.2788   -5.8432    0.0000 C   0  0  0  0  0  0  0  0  0  0  0  0
    5.6913   -6.5577    0.0000 C   0  0  0  0  0  0  0  0  0  0  0  0
    6.5163   -6.5577    0.0000 N   0  0  0  0  0  0  0  0  0  0  0  0
    5.2788   -7.2721    0.0000 N   0  0  0  0  0  0  0  0  0  0  0  0
    4.4584   -5.7570    0.0000 C   0  0  0  0  0  0  0  0  0  0  0  0
    4.2868   -4.9500    0.0000 C   0  0  0  0  0  0  0  0  0  0  0  0
    2.1434   -3.7125    0.0000 C   0  0  0  0  0  0  0  0  0  0  0  0
    1.4289   -3.3000    0.0000 C   0  0  0  0  0  0  0  0  0  0  0  0
    1.4289   -2.4750    0.0000 C   0  0  0  0  0  0  0  0  0  0  0  0
    2.1434   -2.0625    0.0000 C   0  0  0  0  0  0  0  0  0  0  0  0
    2.8579   -2.4750    0.0000 C   0  0  0  0  0  0  0  0  0  0  0  0
    2.8579   -3.3000    0.0000 C   0  0  0  0  0  0  0  0  0  0  0  0
  1  2  1  0  0  0  0
  2  3  1  0  0  0  0
  3  4  1  0  0  0  0
  4  5  2  0  0  0  0
  4  6  1  0  0  0  0
  6  7  1  0  0  0  0
  7  8  1  0  0  0  0
  8  9  1  0  0  0  0
  9 10  1  0  0  0  0
 10 11  4  0  0  0  0
 11 12  4  0  0  0  0
 12 13  4  0  0  0  0
 13 14  4  0  0  0  0
 14 15  4  0  0  0  0
 15 16  4  0  0  0  0
 16 17  1  0  0  0  0
 17 18  2  0  0  0  0
 17 19  1  0  0  0  0
 16 20  4  0  0  0  0
 20 21  4  0  0  0  0
 10 21  4  0  0  0  0
 14 21  4  0  0  0  0
  8 22  1  0  0  0  0
 22 23  4  0  0  0  0
 23 24  4  0  0  0  0
 24 25  4  0  0  0  0
 25 26  4  0  0  0  0
 26 27  4  0  0  0  0
 22 27  4  0  0  0  0
M  END
>  <CdId>
358406

>  <Mol Weight>
383.464

>  <Formula>
C20H21N3O3S

>  <cmpd_chemblid>
CHEMBL606194

>  <std_type>
Ki

>  <std_value>
28.0

>  <std_unit>
nM

>  <target_id>
CHEMBL2016

>  <target_name>
Coagulation factor IX

>  <organism>
Homo sapiens

>  <target_type>
SINGLE PROTEIN

$$$$

  Mrv0541 08052111042D          

 44 48  0  0  1  0            999 V2000
    8.6329   -2.2539    0.0000 C   0  0  0  0  0  0  0  0  0  0  0  0
    8.2204   -1.5395    0.0000 O   0  0  0  0  0  0  0  0  0  0  0  0
    7.3954   -1.5395    0.0000 C   0  0  0  0  0  0  0  0  0  0  0  0
    6.9829   -2.2539    0.0000 O   0  0  0  0  0  0  0  0  0  0  0  0
    6.9829   -0.8250    0.0000 N   0  0  0  0  0  0  0  0  0  0  0  0
    6.1579   -0.8250    0.0000 C   0  0  0  0  0  0  0  0  0  0  0  0
    5.7454   -0.1105    0.0000 C   0  0  0  0  0  0  0  0  0  0  0  0
    4.9204   -0.1105    0.0000 C   0  0  0  0  0  0  0  0  0  0  0  0
    4.5079   -0.8250    0.0000 C   0  0  0  0  0  0  0  0  0  0  0  0
    4.9204   -1.5395    0.0000 C   0  0  0  0  0  0  0  0  0  0  0  0
    5.7454   -1.5395    0.0000 C   0  0  0  0  0  0  0  0  0  0  0  0
    4.5079   -2.2539    0.0000 N   0  0  0  0  0  0  0  0  0  0  0  0
    4.9204   -2.9684    0.0000 C   0  0  0  0  0  0  0  0  0  0  0  0
    5.7454   -2.9684    0.0000 O   0  0  0  0  0  0  0  0  0  0  0  0
    4.5079   -3.6829    0.0000 C   0  0  2  0  0  0  0  0  0  0  0  0
    4.9204   -4.3974    0.0000 C   0  0  0  0  0  0  0  0  0  0  0  0
    3.6829   -3.6829    0.0000 C   0  0  0  0  0  0  0  0  0  0  0  0
    3.2704   -2.9684    0.0000 C   0  0  0  0  0  0  0  0  0  0  0  0
    2.4454   -2.9684    0.0000 C   0  0  0  0  0  0  0  0  0  0  0  0
    2.0329   -2.2539    0.0000 C   0  0  2  0  0  0  0  0  0  0  0  0
    1.2079   -2.2539    0.0000 N   0  0  0  0  0  0  0  0  0  0  0  0
    0.7954   -2.9684    0.0000 C   0  0  0  0  0  0  0  0  0  0  0  0
   -0.0296   -2.9684    0.0000 C   0  0  0  0  0  0  0  0  0  0  0  0
   -0.4421   -2.2539    0.0000 C   0  0  0  0  0  0  0  0  0  0  0  0
   -1.2671   -2.2539    0.0000 C   0  0  0  0  0  0  0  0  0  0  0  0
   -1.6796   -2.9684    0.0000 C   0  0  0  0  0  0  0  0  0  0  0  0
   -1.2671   -3.6829    0.0000 C   0  0  0  0  0  0  0  0  0  0  0  0
   -0.8546   -4.3974    0.0000 N   0  0  0  0  0  0  0  0  0  0  0  0
   -2.5046   -2.9684    0.0000 C   0  0  0  0  0  0  0  0  0  0  0  0
   -2.9171   -2.2539    0.0000 C   0  0  0  0  0  0  0  0  0  0  0  0
   -2.5046   -1.5395    0.0000 C   0  0  0  0  0  0  0  0  0  0  0  0
   -2.9171   -0.8250    0.0000 Cl  0  0  0  0  0  0  0  0  0  0  0  0
   -1.6796   -1.5395    0.0000 C   0  0  0  0  0  0  0  0  0  0  0  0
   -1.2671   -0.8250    0.0000 F   0  0  0  0  0  0  0  0  0  0  0  0
   -0.0296   -1.5395    0.0000 C   0  0  0  0  0  0  0  0  0  0  0  0
    0.7954   -1.5395    0.0000 C   0  0  0  0  0  0  0  0  0  0  0  0
    1.2079   -0.8250    0.0000 O   0  0  0  0  0  0  0  0  0  0  0  0
    2.4454   -1.5395    0.0000 C   0  0  0  0  0  0  0  0  0  0  0  0
    3.2704   -1.5395    0.0000 C   0  0  0  0  0  0  0  0  0  0  0  0
    3.6829   -0.8250    0.0000 C   0  0  0  0  0  0  0  0  0  0  0  0
    3.2704   -0.1105    0.0000 C   0  0  0  0  0  0  0  0  0  0  0  0
    2.4454   -0.1105    0.0000 C   0  0  0  0  0  0  0  0  0  0  0  0
    2.0329    0.6039    0.0000 O   0  0  0  0  0  0  0  0  0  0  0  0
    2.0329   -0.8250    0.0000 N   0  0  0  0  0  0  0  0  0  0  0  0
  1  2  1  0  0  0  0
  2  3  1  0  0  0  0
  3  4  2  0  0  0  0
  3  5  1  0  0  0  0
  5  6  1  0  0  0  0
  6  7  4  0  0  0  0
  7  8  4  0  0  0  0
  8  9  4  0  0  0  0
  9 10  4  0  0  0  0
 10 11  4  0  0  0  0
  6 11  4  0  0  0  0
 10 12  1  0  0  0  0
 12 13  1  0  0  0  0
 13 14  2  0  0  0  0
 13 15  1  0  0  0  0
 15 16  1  6  0  0  0
 15 17  1  0  0  0  0
 17 18  1  0  0  0  0
 18 19  1  0  0  0  0
 19 20  1  0  0  0  0
 20 21  1  6  0  0  0
 21 22  1  0  0  0  0
 22 23  1  0  0  0  0
 23 24  1  0  0  0  0
 24 25  1  0  0  0  0
 25 26  4  0  0  0  0
 26 27  1  0  0  0  0
 27 28  3  0  0  0  0
 26 29  4  0  0  0  0
 29 30  4  0  0  0  0
 30 31  4  0  0  0  0
 31 32  1  0  0  0  0
 31 33  4  0  0  0  0
 25 33  4  0  0  0  0
 33 34  1  0  0  0  0
 24 35  2  0  0  0  0
 35 36  1  0  0  0  0
 21 36  1  0  0  0  0
 36 37  2  0  0  0  0
 20 38  1  0  0  0  0
 38 39  4  0  0  0  0
 39 40  4  0  0  0  0
  9 40  1  0  0  0  0
 40 41  4  0  0  0  0
 41 42  4  0  0  0  0
 42 43  2  0  0  0  0
 42 44  4  0  0  0  0
 38 44  4  0  0  0  0
M  STY  1   1 DAT
M  SAL   1  1  44
M  SDT   1 MRV_IMPLICIT_H                                        
M  SDD   1     0.0000    0.0000    DR    ALL  0       0  
M  SED   1 IMPL_H1
M  END
>  <CdId>
358407

>  <Mol Weight>
618.055

>  <Formula>
C32H29ClFN5O5

>  <cmpd_chemblid>
CHEMBL4114611

>  <std_type>
Ki

>  <std_value>
0.21

>  <std_unit>
nM

>  <target_id>
CHEMBL2016

>  <target_name>
Coagulation factor IX

>  <organism>
Homo sapiens

>  <target_type>
SINGLE PROTEIN

$$$$

  Mrv0541 08052111042D          

 42 46  0  0  1  0            999 V2000
    8.6329   -2.2539    0.0000 C   0  0  0  0  0  0  0  0  0  0  0  0
    8.2204   -1.5395    0.0000 O   0  0  0  0  0  0  0  0  0  0  0  0
    7.3954   -1.5395    0.0000 C   0  0  0  0  0  0  0  0  0  0  0  0
    6.9829   -2.2539    0.0000 O   0  0  0  0  0  0  0  0  0  0  0  0
    6.9829   -0.8250    0.0000 N   0  0  0  0  0  0  0  0  0  0  0  0
    6.1579   -0.8250    0.0000 C   0  0  0  0  0  0  0  0  0  0  0  0
    5.7454   -0.1105    0.0000 C   0  0  0  0  0  0  0  0  0  0  0  0
    4.9204   -0.1105    0.0000 C   0  0  0  0  0  0  0  0  0  0  0  0
    4.5079   -0.8250    0.0000 C   0  0  0  0  0  0  0  0  0  0  0  0
    4.9204   -1.5395    0.0000 C   0  0  0  0  0  0  0  0  0  0  0  0
    5.7454   -1.5395    0.0000 C   0  0  0  0  0  0  0  0  0  0  0  0
    4.5079   -2.2539    0.0000 N   0  0  0  0  0  0  0  0  0  0  0  0
    4.9204   -2.9684    0.0000 C   0  0  0  0  0  0  0  0  0  0  0  0
    5.7454   -2.9684    0.0000 O   0  0  0  0  0  0  0  0  0  0  0  0
    4.5079   -3.6829    0.0000 C   0  0  2  0  0  0  0  0  0  0  0  0
    4.9204   -4.3974    0.0000 C   0  0  0  0  0  0  0  0  0  0  0  0
    3.6829   -3.6829    0.0000 C   0  0  0  0  0  0  0  0  0  0  0  0
    3.2704   -2.9684    0.0000 C   0  0  0  0  0  0  0  0  0  0  0  0
    2.4454   -2.9684    0.0000 C   0  0  0  0  0  0  0  0  0  0  0  0
    2.0329   -2.2539    0.0000 C   0  0  2  0  0  0  0  0  0  0  0  0
    1.2079   -2.2539    0.0000 N   0  0  0  0  0  0  0  0  0  0  0  0
    0.7954   -2.9684    0.0000 C   0  0  0  0  0  0  0  0  0  0  0  0
   -0.0296   -2.9684    0.0000 C   0  0  0  0  0  0  0  0  0  0  0  0
   -0.4421   -2.2539    0.0000 C   0  0  0  0  0  0  0  0  0  0  0  0
   -1.2671   -2.2539    0.0000 C   0  0  0  0  0  0  0  0  0  0  0  0
   -1.6796   -2.9684    0.0000 C   0  0  0  0  0  0  0  0  0  0  0  0
   -2.5046   -2.9684    0.0000 C   0  0  0  0  0  0  0  0  0  0  0  0
   -2.9171   -2.2539    0.0000 C   0  0  0  0  0  0  0  0  0  0  0  0
   -2.5046   -1.5395    0.0000 C   0  0  0  0  0  0  0  0  0  0  0  0
   -2.9171   -0.8250    0.0000 Cl  0  0  0  0  0  0  0  0  0  0  0  0
   -1.6796   -1.5395    0.0000 C   0  0  0  0  0  0  0  0  0  0  0  0
   -1.2671   -0.8250    0.0000 O   0  0  0  0  0  0  0  0  0  0  0  0
   -0.4421   -0.8250    0.0000 C   0  0  0  0  0  0  0  0  0  0  0  0
   -0.0296   -1.5395    0.0000 C   0  0  0  0  0  0  0  0  0  0  0  0
    0.7954   -1.5395    0.0000 C   0  0  0  0  0  0  0  0  0  0  0  0
    1.2079   -0.8250    0.0000 O   0  0  0  0  0  0  0  0  0  0  0  0
    2.4454   -1.5395    0.0000 C   0  0  0  0  0  0  0  0  0  0  0  0
    3.2704   -1.5395    0.0000 C   0  0  0  0  0  0  0  0  0  0  0  0
    3.6829   -0.8250    0.0000 C   0  0  0  0  0  0  0  0  0  0  0  0
    3.2704   -0.1105    0.0000 C   0  0  0  0  0  0  0  0  0  0  0  0
    2.4454   -0.1105    0.0000 C   0  0  0  0  0  0  0  0  0  0  0  0
    2.0329   -0.8250    0.0000 N   0  0  0  0  0  0  0  0  0  0  0  0
  1  2  1  0  0  0  0
  2  3  1  0  0  0  0
  3  4  2  0  0  0  0
  3  5  1  0  0  0  0
  5  6  1  0  0  0  0
  6  7  4  0  0  0  0
  7  8  4  0  0  0  0
  8  9  4  0  0  0  0
  9 10  4  0  0  0  0
 10 11  4  0  0  0  0
  6 11  4  0  0  0  0
 10 12  1  0  0  0  0
 12 13  1  0  0  0  0
 13 14  2  0  0  0  0
 13 15  1  0  0  0  0
 15 16  1  6  0  0  0
 15 17  1  0  0  0  0
 17 18  1  0  0  0  0
 18 19  1  0  0  0  0
 19 20  1  0  0  0  0
 20 21  1  6  0  0  0
 21 22  1  0  0  0  0
 22 23  1  0  0  0  0
 23 24  1  0  0  0  0
 24 25  1  0  0  0  0
 25 26  4  0  0  0  0
 26 27  4  0  0  0  0
 27 28  4  0  0  0  0
 28 29  4  0  0  0  0
 29 30  1  0  0  0  0
 29 31  4  0  0  0  0
 25 31  4  0  0  0  0
 31 32  1  0  0  0  0
 32 33  1  0  0  0  0
 24 34  2  0  0  0  0
 34 35  1  0  0  0  0
 21 35  1  0  0  0  0
 35 36  2  0  0  0  0
 20 37  1  0  0  0  0
 37 38  4  0  0  0  0
 38 39  4  0  0  0  0
  9 39  1  0  0  0  0
 39 40  4  0  0  0  0
 40 41  4  0  0  0  0
 41 42  4  0  0  0  0
 37 42  4  0  0  0  0
M  END
>  <CdId>
358408

>  <Mol Weight>
589.081

>  <Formula>
C32H33ClN4O5

>  <cmpd_chemblid>
CHEMBL4110220

>  <std_type>
Ki

>  <std_value>
404.3

>  <std_unit>
nM

>  <target_id>
CHEMBL2016

>  <target_name>
Coagulation factor IX

>  <organism>
Homo sapiens

>  <target_type>
SINGLE PROTEIN

$$$$

  Mrv0541 08052111042D          

 37 39  0  0  0  0            999 V2000
    2.1434   -1.2375    0.0000 C   0  0  0  0  0  0  0  0  0  0  0  0
    1.4289   -1.6500    0.0000 O   0  0  0  0  0  0  0  0  0  0  0  0
    1.4289   -2.4750    0.0000 C   0  0  0  0  0  0  0  0  0  0  0  0
    2.1434   -2.8875    0.0000 C   0  0  0  0  0  0  0  0  0  0  0  0
    2.1434   -3.7125    0.0000 C   0  0  0  0  0  0  0  0  0  0  0  0
    1.4289   -4.1250    0.0000 C   0  0  0  0  0  0  0  0  0  0  0  0
    1.4289   -4.9500    0.0000 C   0  0  0  0  0  0  0  0  0  0  0  0
    0.7145   -5.3625    0.0000 C   0  0  0  0  0  0  0  0  0  0  0  0
    0.7145   -6.1875    0.0000 C   0  0  0  0  0  0  0  0  0  0  0  0
    1.4289   -6.6000    0.0000 C   0  0  0  0  0  0  0  0  0  0  0  0
    1.4289   -7.4250    0.0000 C   0  0  0  0  0  0  0  0  0  0  0  0
    0.7145   -7.8375    0.0000 O   0  0  0  0  0  0  0  0  0  0  0  0
    2.1434   -7.8375    0.0000 N   0  0  0  0  0  0  0  0  0  0  0  0
    2.1434   -8.6625    0.0000 C   0  0  0  0  0  0  0  0  0  0  0  0
    2.8579   -9.0750    0.0000 C   0  0  0  0  0  0  0  0  0  0  0  0
    3.5724   -9.4875    0.0000 C   0  0  0  0  0  0  0  0  0  0  0  0
    2.4454   -9.7895    0.0000 C   0  0  0  0  0  0  0  0  0  0  0  0
    3.2704   -8.3605    0.0000 C   0  0  0  0  0  0  0  0  0  0  0  0
    2.1434   -6.1875    0.0000 C   0  0  0  0  0  0  0  0  0  0  0  0
    2.1434   -5.3625    0.0000 C   0  0  0  0  0  0  0  0  0  0  0  0
    2.8579   -4.9500    0.0000 C   0  0  0  0  0  0  0  0  0  0  0  0
    2.8579   -4.1250    0.0000 O   0  0  0  0  0  0  0  0  0  0  0  0
    3.5724   -5.3625    0.0000 O   0  0  0  0  0  0  0  0  0  0  0  0
    0.7145   -3.7125    0.0000 C   0  0  0  0  0  0  0  0  0  0  0  0
    0.0000   -4.1250    0.0000 C   0  0  0  0  0  0  0  0  0  0  0  0
   -0.7145   -3.7125    0.0000 O   0  0  0  0  0  0  0  0  0  0  0  0
    0.0000   -4.9500    0.0000 N   0  0  0  0  0  0  0  0  0  0  0  0
   -0.7145   -5.3625    0.0000 C   0  0  0  0  0  0  0  0  0  0  0  0
   -0.7145   -6.1875    0.0000 C   0  0  0  0  0  0  0  0  0  0  0  0
   -1.4289   -6.6000    0.0000 C   0  0  0  0  0  0  0  0  0  0  0  0
   -2.1434   -6.1875    0.0000 C   0  0  0  0  0  0  0  0  0  0  0  0
   -2.8579   -6.6000    0.0000 C   0  0  0  0  0  0  0  0  0  0  0  0
   -3.5724   -6.1875    0.0000 N   0  0  0  0  0  0  0  0  0  0  0  0
   -2.8579   -7.4250    0.0000 N   0  0  0  0  0  0  0  0  0  0  0  0
   -2.1434   -5.3625    0.0000 C   0  0  0  0  0  0  0  0  0  0  0  0
   -1.4289   -4.9500    0.0000 C   0  0  0  0  0  0  0  0  0  0  0  0
    0.7145   -2.8875    0.0000 N   0  0  0  0  0  0  0  0  0  0  0  0
  1  2  1  0  0  0  0
  2  3  1  0  0  0  0
  3  4  4  0  0  0  0
  4  5  4  0  0  0  0
  5  6  4  0  0  0  0
  6  7  1  0  0  0  0
  7  8  4  0  0  0  0
  8  9  4  0  0  0  0
  9 10  4  0  0  0  0
 10 11  1  0  0  0  0
 11 12  2  0  0  0  0
 11 13  1  0  0  0  0
 13 14  1  0  0  0  0
 14 15  1  0  0  0  0
 15 16  1  0  0  0  0
 15 17  1  0  0  0  0
 15 18  1  0  0  0  0
 10 19  4  0  0  0  0
 19 20  4  0  0  0  0
  7 20  4  0  0  0  0
 20 21  1  0  0  0  0
 21 22  2  0  0  0  0
 21 23  1  0  0  0  0
  6 24  4  0  0  0  0
 24 25  1  0  0  0  0
 25 26  2  0  0  0  0
 25 27  1  0  0  0  0
 27 28  1  0  0  0  0
 28 29  4  0  0  0  0
 29 30  4  0  0  0  0
 30 31  4  0  0  0  0
 31 32  1  0  0  0  0
 32 33  2  0  0  0  0
 32 34  1  0  0  0  0
 31 35  4  0  0  0  0
 35 36  4  0  0  0  0
 28 36  4  0  0  0  0
 24 37  4  0  0  0  0
  3 37  4  0  0  0  0
M  END
>  <CdId>
358409

>  <Mol Weight>
503.5497

>  <Formula>
C27H29N5O5

>  <cmpd_chemblid>
CHEMBL2417905

>  <std_type>
Ki

>  <std_value>
25.5

>  <std_unit>
nM

>  <target_id>
CHEMBL2016

>  <target_name>
Coagulation factor IX

>  <organism>
Homo sapiens

>  <target_type>
SINGLE PROTEIN

$$$$

  Mrv0541 08052111042D          

 47 51  0  0  0  0            999 V2000
    2.1599   -2.6720    0.0000 N   0  0  0  0  0  0  0  0  0  0  0  0
    1.4455   -2.2595    0.0000 C   0  0  0  0  0  0  0  0  0  0  0  0
    1.4455   -1.4345    0.0000 N   0  0  0  0  0  0  0  0  0  0  0  0
    0.7310   -2.6720    0.0000 C   0  0  0  0  0  0  0  0  0  0  0  0
    0.7310   -3.4970    0.0000 C   0  0  0  0  0  0  0  0  0  0  0  0
    0.0165   -3.9095    0.0000 C   0  0  0  0  0  0  0  0  0  0  0  0
   -0.6979   -3.4970    0.0000 C   0  0  0  0  0  0  0  0  0  0  0  0
   -1.4826   -3.7519    0.0000 S   0  0  0  0  0  0  0  0  0  0  0  0
   -1.9675   -3.0845    0.0000 C   0  0  0  0  0  0  0  0  0  0  0  0
   -1.4826   -2.4170    0.0000 C   0  0  0  0  0  0  0  0  0  0  0  0
   -1.7375   -1.6324    0.0000 C   0  0  0  0  0  0  0  0  0  0  0  0
   -2.5445   -1.4609    0.0000 C   0  0  0  0  0  0  0  0  0  0  0  0
   -2.7994   -0.6763    0.0000 C   0  0  0  0  0  0  0  0  0  0  0  0
   -3.6064   -0.5047    0.0000 C   0  0  0  0  0  0  0  0  0  0  0  0
   -3.8613    0.2799    0.0000 C   0  0  0  0  0  0  0  0  0  0  0  0
   -3.3093    0.8930    0.0000 C   0  0  0  0  0  0  0  0  0  0  0  0
   -2.5023    0.7215    0.0000 C   0  0  0  0  0  0  0  0  0  0  0  0
   -2.2474   -0.0632    0.0000 C   0  0  0  0  0  0  0  0  0  0  0  0
   -1.1855   -1.0193    0.0000 C   0  0  0  0  0  0  0  0  0  0  0  0
   -0.3785   -1.1908    0.0000 O   0  0  0  0  0  0  0  0  0  0  0  0
   -1.4404   -0.2347    0.0000 N   0  0  0  0  0  0  0  0  0  0  0  0
   -0.8884    0.3784    0.0000 C   0  0  0  0  0  0  0  0  0  0  0  0
   -1.1433    1.1630    0.0000 C   0  0  0  0  0  0  0  0  0  0  0  0
   -0.5913    1.7761    0.0000 C   0  0  0  0  0  0  0  0  0  0  0  0
    0.2157    1.6046    0.0000 C   0  0  0  0  0  0  0  0  0  0  0  0
    0.7677    2.2177    0.0000 N   0  0  0  0  0  0  0  0  0  0  0  0
    0.5962    3.0247    0.0000 C   0  0  0  0  0  0  0  0  0  0  0  0
    1.3107    3.4372    0.0000 N   0  0  0  0  0  0  0  0  0  0  0  0
    1.9238    2.8851    0.0000 C   0  0  0  0  0  0  0  0  0  0  0  0
    2.7307    3.0567    0.0000 C   0  0  0  0  0  0  0  0  0  0  0  0
    2.9857    3.8413    0.0000 C   0  0  0  0  0  0  0  0  0  0  0  0
    3.7927    4.0128    0.0000 C   0  0  0  0  0  0  0  0  0  0  0  0
    4.3447    3.3997    0.0000 C   0  0  0  0  0  0  0  0  0  0  0  0
    4.0897    2.6151    0.0000 C   0  0  0  0  0  0  0  0  0  0  0  0
    3.2828    2.4436    0.0000 C   0  0  0  0  0  0  0  0  0  0  0  0
    1.5882    2.1314    0.0000 C   0  0  0  0  0  0  0  0  0  0  0  0
    0.4706    0.8200    0.0000 C   0  0  0  0  0  0  0  0  0  0  0  0
   -0.0814    0.2069    0.0000 C   0  0  0  0  0  0  0  0  0  0  0  0
   -0.6979   -2.6720    0.0000 C   0  0  0  0  0  0  0  0  0  0  0  0
    0.0165   -2.2595    0.0000 C   0  0  0  0  0  0  0  0  0  0  0  0
    6.4588   -0.8839    0.0000 O   0  0  0  0  0  0  0  0  0  0  0  0
    7.1733   -0.4714    0.0000 C   0  0  0  0  0  0  0  0  0  0  0  0
    7.8877   -0.8839    0.0000 O   0  0  0  0  0  0  0  0  0  0  0  0
    7.1733    0.3536    0.0000 C   0  0  0  0  0  0  0  0  0  0  0  0
    7.1733    1.1786    0.0000 F   0  0  0  0  0  0  0  0  0  0  0  0
    7.9983    0.3536    0.0000 F   0  0  0  0  0  0  0  0  0  0  0  0
    6.3483    0.3536    0.0000 F   0  0  0  0  0  0  0  0  0  0  0  0
  1  2  2  0  0  0  0
  2  3  1  0  0  0  0
  2  4  1  0  0  0  0
  4  5  4  0  0  0  0
  5  6  4  0  0  0  0
  6  7  4  0  0  0  0
  7  8  4  0  0  0  0
  8  9  4  0  0  0  0
  9 10  4  0  0  0  0
 10 11  1  0  0  0  0
 11 12  1  0  0  0  0
 12 13  1  0  0  0  0
 13 14  4  0  0  0  0
 14 15  4  0  0  0  0
 15 16  4  0  0  0  0
 16 17  4  0  0  0  0
 17 18  4  0  0  0  0
 13 18  4  0  0  0  0
 11 19  1  0  0  0  0
 19 20  2  0  0  0  0
 19 21  1  0  0  0  0
 21 22  1  0  0  0  0
 22 23  4  0  0  0  0
 23 24  4  0  0  0  0
 24 25  4  0  0  0  0
 25 26  1  0  0  0  0
 26 27  4  0  0  0  0
 27 28  4  0  0  0  0
 28 29  4  0  0  0  0
 29 30  1  0  0  0  0
 30 31  4  0  0  0  0
 31 32  4  0  0  0  0
 32 33  4  0  0  0  0
 33 34  4  0  0  0  0
 34 35  4  0  0  0  0
 30 35  4  0  0  0  0
 29 36  4  0  0  0  0
 26 36  4  0  0  0  0
 25 37  4  0  0  0  0
 37 38  4  0  0  0  0
 22 38  4  0  0  0  0
 10 39  4  0  0  0  0
  7 39  4  0  0  0  0
 39 40  4  0  0  0  0
  4 40  4  0  0  0  0
 41 42  2  0  0  0  0
 42 43  1  0  0  0  0
 42 44  1  0  0  0  0
 44 45  1  0  0  0  0
 44 46  1  0  0  0  0
 44 47  1  0  0  0  0
M  END
>  <CdId>
358410

>  <Mol Weight>
655.689

>  <Formula>
C35H28F3N5O3S

>  <cmpd_chemblid>
CHEMBL363310

>  <std_type>
Ki

>  <std_value>
390.0

>  <std_unit>
nM

>  <target_id>
CHEMBL2016

>  <target_name>
Coagulation factor IX

>  <organism>
Homo sapiens

>  <target_type>
SINGLE PROTEIN

$$$$

  Mrv0541 08052111042D          

 31 34  0  0  0  0            999 V2000
    2.6378    3.1729    0.0000 C   0  0  0  0  0  0  0  0  0  0  0  0
    3.3523    3.5854    0.0000 O   0  0  0  0  0  0  0  0  0  0  0  0
    3.3523    4.4104    0.0000 C   0  0  0  0  0  0  0  0  0  0  0  0
    2.6378    4.8229    0.0000 O   0  0  0  0  0  0  0  0  0  0  0  0
    4.0668    4.8229    0.0000 C   0  0  0  0  0  0  0  0  0  0  0  0
    4.7812    4.4104    0.0000 O   0  0  0  0  0  0  0  0  0  0  0  0
    4.7812    3.5854    0.0000 C   0  0  0  0  0  0  0  0  0  0  0  0
    5.4957    3.1729    0.0000 C   0  0  0  0  0  0  0  0  0  0  0  0
    5.4957    2.3479    0.0000 C   0  0  0  0  0  0  0  0  0  0  0  0
    4.7812    1.9354    0.0000 C   0  0  0  0  0  0  0  0  0  0  0  0
    4.0668    2.3479    0.0000 C   0  0  0  0  0  0  0  0  0  0  0  0
    3.3523    1.9354    0.0000 C   0  0  0  0  0  0  0  0  0  0  0  0
    3.3523    1.1104    0.0000 C   0  0  0  0  0  0  0  0  0  0  0  0
    2.6378    0.6979    0.0000 C   0  0  0  0  0  0  0  0  0  0  0  0
    1.9233    1.1104    0.0000 C   0  0  0  0  0  0  0  0  0  0  0  0
    1.1387    0.8555    0.0000 S   0  0  0  0  0  0  0  0  0  0  0  0
    0.6538    1.5229    0.0000 C   0  0  0  0  0  0  0  0  0  0  0  0
   -0.1712    1.5229    0.0000 C   0  0  0  0  0  0  0  0  0  0  0  0
   -0.5837    0.8085    0.0000 N   0  0  0  0  0  0  0  0  0  0  0  0
   -0.5837    2.2374    0.0000 N   0  0  0  0  0  0  0  0  0  0  0  0
    1.1387    2.1904    0.0000 C   0  0  0  0  0  0  0  0  0  0  0  0
    1.9233    1.9354    0.0000 C   0  0  0  0  0  0  0  0  0  0  0  0
    2.6378    2.3479    0.0000 C   0  0  0  0  0  0  0  0  0  0  0  0
    4.0668    3.1729    0.0000 C   0  0  0  0  0  0  0  0  0  0  0  0
    4.0668    5.6479    0.0000 C   0  0  0  0  0  0  0  0  0  0  0  0
    3.3523    6.0604    0.0000 C   0  0  0  0  0  0  0  0  0  0  0  0
    3.3523    6.8854    0.0000 C   0  0  0  0  0  0  0  0  0  0  0  0
    4.0668    7.2979    0.0000 C   0  0  0  0  0  0  0  0  0  0  0  0
    4.0668    8.1229    0.0000 Cl  0  0  0  0  0  0  0  0  0  0  0  0
    4.7812    6.8854    0.0000 C   0  0  0  0  0  0  0  0  0  0  0  0
    4.7812    6.0604    0.0000 C   0  0  0  0  0  0  0  0  0  0  0  0
  1  2  1  0  0  0  0
  2  3  1  0  0  0  0
  3  4  2  0  0  0  0
  3  5  1  0  0  0  0
  5  6  1  0  0  0  0
  6  7  1  0  0  0  0
  7  8  4  0  0  0  0
  8  9  4  0  0  0  0
  9 10  4  0  0  0  0
 10 11  4  0  0  0  0
 11 12  1  0  0  0  0
 12 13  4  0  0  0  0
 13 14  4  0  0  0  0
 14 15  4  0  0  0  0
 15 16  4  0  0  0  0
 16 17  4  0  0  0  0
 17 18  1  0  0  0  0
 18 19  2  0  0  0  0
 18 20  1  0  0  0  0
 17 21  4  0  0  0  0
 21 22  4  0  0  0  0
 15 22  4  0  0  0  0
 22 23  4  0  0  0  0
 12 23  4  0  0  0  0
 11 24  4  0  0  0  0
  7 24  4  0  0  0  0
  5 25  1  0  0  0  0
 25 26  4  0  0  0  0
 26 27  4  0  0  0  0
 27 28  4  0  0  0  0
 28 29  1  0  0  0  0
 28 30  4  0  0  0  0
 30 31  4  0  0  0  0
 25 31  4  0  0  0  0
M  END
>  <CdId>
358411

>  <Mol Weight>
450.937

>  <Formula>
C24H19ClN2O3S

>  <cmpd_chemblid>
CHEMBL603867

>  <std_type>
Ki

>  <std_value>
20.0

>  <std_unit>
nM

>  <target_id>
CHEMBL2016

>  <target_name>
Coagulation factor IX

>  <organism>
Homo sapiens

>  <target_type>
SINGLE PROTEIN

$$$$

  Mrv0541 08052111042D          

 47 53  0  0  0  0            999 V2000
   10.0646   -1.6944    0.0000 N   0  0  0  0  0  0  0  0  0  0  0  0
   10.0646   -0.8694    0.0000 C   0  0  0  0  0  0  0  0  0  0  0  0
   10.7791   -0.4569    0.0000 N   0  0  0  0  0  0  0  0  0  0  0  0
    9.3502   -0.4569    0.0000 C   0  0  0  0  0  0  0  0  0  0  0  0
    9.3502    0.3681    0.0000 C   0  0  0  0  0  0  0  0  0  0  0  0
    8.6357    0.7806    0.0000 C   0  0  0  0  0  0  0  0  0  0  0  0
    7.9212    0.3681    0.0000 C   0  0  0  0  0  0  0  0  0  0  0  0
    7.1366    0.6230    0.0000 N   0  0  0  0  0  0  0  0  0  0  0  0
    6.6517   -0.0444    0.0000 C   0  0  0  0  0  0  0  0  0  0  0  0
    7.1366   -0.7118    0.0000 C   0  0  0  0  0  0  0  0  0  0  0  0
    6.8817   -1.4965    0.0000 C   0  0  0  0  0  0  0  0  0  0  0  0
    6.0747   -1.6680    0.0000 C   0  0  0  0  0  0  0  0  0  0  0  0
    5.5226   -1.0549    0.0000 C   0  0  0  0  0  0  0  0  0  0  0  0
    4.7157   -1.2264    0.0000 C   0  0  0  0  0  0  0  0  0  0  0  0
    4.1636   -0.6133    0.0000 C   0  0  0  0  0  0  0  0  0  0  0  0
    4.4186    0.1713    0.0000 C   0  0  0  0  0  0  0  0  0  0  0  0
    3.8665    0.7844    0.0000 N   0  0  0  0  0  0  0  0  0  0  0  0
    4.1215    1.5690    0.0000 C   0  0  0  0  0  0  0  0  0  0  0  0
    4.9285    1.7405    0.0000 O   0  0  0  0  0  0  0  0  0  0  0  0
    3.5695    2.1821    0.0000 C   0  0  0  0  0  0  0  0  0  0  0  0
    2.7625    2.0106    0.0000 C   0  0  0  0  0  0  0  0  0  0  0  0
    2.2104    2.6237    0.0000 C   0  0  0  0  0  0  0  0  0  0  0  0
    2.4654    3.4083    0.0000 C   0  0  0  0  0  0  0  0  0  0  0  0
    3.2724    3.5798    0.0000 C   0  0  0  0  0  0  0  0  0  0  0  0
    3.8244    2.9667    0.0000 C   0  0  0  0  0  0  0  0  0  0  0  0
    5.2256    0.3428    0.0000 C   0  0  0  0  0  0  0  0  0  0  0  0
    5.7776   -0.2703    0.0000 C   0  0  0  0  0  0  0  0  0  0  0  0
    7.4337   -2.1096    0.0000 C   0  0  0  0  0  0  0  0  0  0  0  0
    7.1787   -2.8942    0.0000 O   0  0  0  0  0  0  0  0  0  0  0  0
    8.2407   -1.9380    0.0000 N   0  0  0  0  0  0  0  0  0  0  0  0
    8.7927   -2.5511    0.0000 C   0  0  0  0  0  0  0  0  0  0  0  0
    9.5997   -2.3796    0.0000 C   0  0  0  0  0  0  0  0  0  0  0  0
   10.1517   -2.9927    0.0000 C   0  0  0  0  0  0  0  0  0  0  0  0
    9.8968   -3.7773    0.0000 C   0  0  0  0  0  0  0  0  0  0  0  0
   10.4488   -4.3904    0.0000 N   0  0  0  0  0  0  0  0  0  0  0  0
   11.2693   -4.3042    0.0000 C   0  0  0  0  0  0  0  0  0  0  0  0
   11.6048   -5.0578    0.0000 N   0  0  0  0  0  0  0  0  0  0  0  0
   10.9917   -5.6099    0.0000 C   0  0  0  0  0  0  0  0  0  0  0  0
   10.9917   -6.4349    0.0000 C   0  0  0  0  0  0  0  0  0  0  0  0
   10.2773   -6.8474    0.0000 C   0  0  0  0  0  0  0  0  0  0  0  0
    9.5628   -6.4349    0.0000 C   0  0  0  0  0  0  0  0  0  0  0  0
    9.5628   -5.6099    0.0000 C   0  0  0  0  0  0  0  0  0  0  0  0
   10.2773   -5.1974    0.0000 C   0  0  0  0  0  0  0  0  0  0  0  0
    9.0898   -3.9488    0.0000 C   0  0  0  0  0  0  0  0  0  0  0  0
    8.5377   -3.3357    0.0000 C   0  0  0  0  0  0  0  0  0  0  0  0
    7.9212   -0.4569    0.0000 C   0  0  0  0  0  0  0  0  0  0  0  0
    8.6357   -0.8694    0.0000 C   0  0  0  0  0  0  0  0  0  0  0  0
  1  2  2  0  0  0  0
  2  3  1  0  0  0  0
  2  4  1  0  0  0  0
  4  5  4  0  0  0  0
  5  6  4  0  0  0  0
  6  7  4  0  0  0  0
  7  8  4  0  0  0  0
  8  9  4  0  0  0  0
  9 10  4  0  0  0  0
 10 11  1  0  0  0  0
 11 12  1  0  0  0  0
 12 13  1  0  0  0  0
 13 14  4  0  0  0  0
 14 15  4  0  0  0  0
 15 16  4  0  0  0  0
 16 17  1  0  0  0  0
 17 18  1  0  0  0  0
 18 19  2  0  0  0  0
 18 20  1  0  0  0  0
 20 21  4  0  0  0  0
 21 22  4  0  0  0  0
 22 23  4  0  0  0  0
 23 24  4  0  0  0  0
 24 25  4  0  0  0  0
 20 25  4  0  0  0  0
 16 26  4  0  0  0  0
 26 27  4  0  0  0  0
 13 27  4  0  0  0  0
 11 28  1  0  0  0  0
 28 29  2  0  0  0  0
 28 30  1  0  0  0  0
 30 31  1  0  0  0  0
 31 32  4  0  0  0  0
 32 33  4  0  0  0  0
 33 34  4  0  0  0  0
 34 35  1  0  0  0  0
 35 36  4  0  0  0  0
 36 37  4  0  0  0  0
 37 38  4  0  0  0  0
 38 39  4  0  0  0  0
 39 40  4  0  0  0  0
 40 41  4  0  0  0  0
 41 42  4  0  0  0  0
 42 43  4  0  0  0  0
 38 43  4  0  0  0  0
 35 43  4  0  0  0  0
 34 44  4  0  0  0  0
 44 45  4  0  0  0  0
 31 45  4  0  0  0  0
 10 46  4  0  0  0  0
  7 46  4  0  0  0  0
 46 47  4  0  0  0  0
  4 47  4  0  0  0  0
M  STY  1   1 DAT
M  SAL   1  1   8
M  SDT   1 MRV_IMPLICIT_H                                        
M  SDD   1     0.0000    0.0000    DR    ALL  0       0  
M  SED   1 IMPL_H1
M  END
>  <CdId>
358412

>  <Mol Weight>
617.6984

>  <Formula>
C38H31N7O2

>  <cmpd_chemblid>
CHEMBL363885

>  <std_type>
Ki

>  <std_value>
270.0

>  <std_unit>
nM

>  <target_id>
CHEMBL2016

>  <target_name>
Coagulation factor IX

>  <organism>
Homo sapiens

>  <target_type>
SINGLE PROTEIN

$$$$

  Mrv0541 08052111042D          

 48 52  0  0  1  0            999 V2000
    3.9849    3.9849    0.0000 C   0  0  0  0  0  0  0  0  0  0  0  0
    4.3974    3.2704    0.0000 C   0  0  2  0  0  0  0  0  0  0  0  0
    5.2224    3.2704    0.0000 C   0  0  0  0  0  0  0  0  0  0  0  0
    5.6349    2.5559    0.0000 C   0  0  0  0  0  0  0  0  0  0  0  0
    6.4599    2.5559    0.0000 C   0  0  0  0  0  0  0  0  0  0  0  0
    6.8724    1.8414    0.0000 C   0  0  2  0  0  0  0  0  0  0  0  0
    7.6974    1.8414    0.0000 N   0  0  0  0  0  0  0  0  0  0  0  0
    8.1099    2.5559    0.0000 C   0  0  0  0  0  0  0  0  0  0  0  0
    8.9349    2.5559    0.0000 C   0  0  0  0  0  0  0  0  0  0  0  0
    9.3474    1.8414    0.0000 C   0  0  0  0  0  0  0  0  0  0  0  0
   10.1724    1.8414    0.0000 C   0  0  0  0  0  0  0  0  0  0  0  0
   10.5849    2.5559    0.0000 C   0  0  0  0  0  0  0  0  0  0  0  0
   10.1724    3.2704    0.0000 F   0  0  0  0  0  0  0  0  0  0  0  0
   11.4099    2.5559    0.0000 C   0  0  0  0  0  0  0  0  0  0  0  0
   11.8224    1.8414    0.0000 C   0  0  0  0  0  0  0  0  0  0  0  0
   11.4099    1.1270    0.0000 C   0  0  0  0  0  0  0  0  0  0  0  0
   11.8224    0.4125    0.0000 Cl  0  0  0  0  0  0  0  0  0  0  0  0
   10.5849    1.1270    0.0000 C   0  0  0  0  0  0  0  0  0  0  0  0
   10.1724    0.4125    0.0000 F   0  0  0  0  0  0  0  0  0  0  0  0
    8.9349    1.1270    0.0000 C   0  0  0  0  0  0  0  0  0  0  0  0
    8.1099    1.1270    0.0000 C   0  0  0  0  0  0  0  0  0  0  0  0
    7.6974    0.4125    0.0000 O   0  0  0  0  0  0  0  0  0  0  0  0
    6.4599    1.1270    0.0000 C   0  0  0  0  0  0  0  0  0  0  0  0
    5.6349    1.1270    0.0000 C   0  0  0  0  0  0  0  0  0  0  0  0
    5.2224    0.4125    0.0000 C   0  0  0  0  0  0  0  0  0  0  0  0
    5.6349   -0.3020    0.0000 C   0  0  0  0  0  0  0  0  0  0  0  0
    6.4599   -0.3020    0.0000 C   0  0  0  0  0  0  0  0  0  0  0  0
    6.8724    0.4125    0.0000 N   0  0  0  0  0  0  0  0  0  0  0  0
    4.3974    0.4125    0.0000 C   0  0  0  0  0  0  0  0  0  0  0  0
    3.9849   -0.3020    0.0000 C   0  0  0  0  0  0  0  0  0  0  0  0
    3.1599   -0.3020    0.0000 C   0  0  0  0  0  0  0  0  0  0  0  0
    2.7474    0.4125    0.0000 C   0  0  0  0  0  0  0  0  0  0  0  0
    1.9224    0.4125    0.0000 N   0  0  0  0  0  0  0  0  0  0  0  0
    1.5099    1.1270    0.0000 C   0  0  0  0  0  0  0  0  0  0  0  0
    1.9224    1.8414    0.0000 O   0  0  0  0  0  0  0  0  0  0  0  0
    0.6849    1.1270    0.0000 O   0  0  0  0  0  0  0  0  0  0  0  0
    0.2724    1.8414    0.0000 C   0  0  0  0  0  0  0  0  0  0  0  0
   -0.5526    1.8414    0.0000 C   0  0  0  0  0  0  0  0  0  0  0  0
   -0.9651    2.5559    0.0000 O   0  0  0  0  0  0  0  0  0  0  0  0
   -1.7901    2.5559    0.0000 C   0  0  0  0  0  0  0  0  0  0  0  0
   -2.6151    2.5559    0.0000 C   0  0  0  0  0  0  0  0  0  0  0  0
   -1.7901    3.3809    0.0000 C   0  0  0  0  0  0  0  0  0  0  0  0
   -1.7901    1.7309    0.0000 C   0  0  0  0  0  0  0  0  0  0  0  0
    3.1599    1.1270    0.0000 C   0  0  0  0  0  0  0  0  0  0  0  0
    3.9849    1.1270    0.0000 C   0  0  0  0  0  0  0  0  0  0  0  0
    4.3974    1.8414    0.0000 N   0  0  0  0  0  0  0  0  0  0  0  0
    3.9849    2.5559    0.0000 C   0  0  0  0  0  0  0  0  0  0  0  0
    3.1599    2.5559    0.0000 O   0  0  0  0  0  0  0  0  0  0  0  0
  2  1  1  6  0  0  0
  2  3  1  0  0  0  0
  3  4  1  0  0  0  0
  4  5  1  0  0  0  0
  5  6  1  0  0  0  0
  6  7  1  6  0  0  0
  7  8  1  0  0  0  0
  8  9  1  0  0  0  0
  9 10  1  0  0  0  0
 10 11  1  0  0  0  0
 11 12  4  0  0  0  0
 12 13  1  0  0  0  0
 12 14  4  0  0  0  0
 14 15  4  0  0  0  0
 15 16  4  0  0  0  0
 16 17  1  0  0  0  0
 16 18  4  0  0  0  0
 11 18  4  0  0  0  0
 18 19  1  0  0  0  0
 10 20  2  0  0  0  0
 20 21  1  0  0  0  0
  7 21  1  0  0  0  0
 21 22  2  0  0  0  0
  6 23  1  0  0  0  0
 23 24  4  0  0  0  0
 24 25  4  0  0  0  0
 25 26  4  0  0  0  0
 26 27  4  0  0  0  0
 27 28  4  0  0  0  0
 23 28  4  0  0  0  0
 25 29  1  0  0  0  0
 29 30  4  0  0  0  0
 30 31  4  0  0  0  0
 31 32  4  0  0  0  0
 32 33  1  0  0  0  0
 33 34  1  0  0  0  0
 34 35  2  0  0  0  0
 34 36  1  0  0  0  0
 36 37  1  0  0  0  0
 37 38  1  0  0  0  0
 38 39  1  0  0  0  0
 39 40  1  0  0  0  0
 40 41  1  0  0  0  0
 40 42  1  0  0  0  0
 40 43  1  0  0  0  0
 32 44  4  0  0  0  0
 44 45  4  0  0  0  0
 29 45  4  0  0  0  0
 45 46  1  0  0  0  0
 46 47  1  0  0  0  0
  2 47  1  0  0  0  0
 47 48  2  0  0  0  0
M  END
>  <CdId>
358413

>  <Mol Weight>
681.168

>  <Formula>
C36H39ClF2N4O5

>  <cmpd_chemblid>
CHEMBL4115630

>  <std_type>
Ki

>  <std_value>
0.08

>  <std_unit>
nM

>  <target_id>
CHEMBL2016

>  <target_name>
Coagulation factor IX

>  <organism>
Homo sapiens

>  <target_type>
SINGLE PROTEIN

$$$$

  Mrv0541 08052111042D          

 41 45  0  0  1  0            999 V2000
    8.6329   -2.2539    0.0000 C   0  0  0  0  0  0  0  0  0  0  0  0
    8.2204   -1.5395    0.0000 O   0  0  0  0  0  0  0  0  0  0  0  0
    7.3954   -1.5395    0.0000 C   0  0  0  0  0  0  0  0  0  0  0  0
    6.9829   -2.2539    0.0000 O   0  0  0  0  0  0  0  0  0  0  0  0
    6.9829   -0.8250    0.0000 N   0  0  0  0  0  0  0  0  0  0  0  0
    6.1579   -0.8250    0.0000 C   0  0  0  0  0  0  0  0  0  0  0  0
    5.7454   -0.1105    0.0000 C   0  0  0  0  0  0  0  0  0  0  0  0
    4.9204   -0.1105    0.0000 C   0  0  0  0  0  0  0  0  0  0  0  0
    4.5079   -0.8250    0.0000 C   0  0  0  0  0  0  0  0  0  0  0  0
    4.9204   -1.5395    0.0000 C   0  0  0  0  0  0  0  0  0  0  0  0
    5.7454   -1.5395    0.0000 C   0  0  0  0  0  0  0  0  0  0  0  0
    4.5079   -2.2539    0.0000 N   0  0  0  0  0  0  0  0  0  0  0  0
    4.9204   -2.9684    0.0000 C   0  0  0  0  0  0  0  0  0  0  0  0
    5.7454   -2.9684    0.0000 O   0  0  0  0  0  0  0  0  0  0  0  0
    4.5079   -3.6829    0.0000 C   0  0  2  0  0  0  0  0  0  0  0  0
    4.9204   -4.3974    0.0000 C   0  0  0  0  0  0  0  0  0  0  0  0
    3.6829   -3.6829    0.0000 C   0  0  0  0  0  0  0  0  0  0  0  0
    3.2704   -2.9684    0.0000 C   0  0  0  0  0  0  0  0  0  0  0  0
    2.4454   -2.9684    0.0000 C   0  0  0  0  0  0  0  0  0  0  0  0
    2.0329   -2.2539    0.0000 C   0  0  2  0  0  0  0  0  0  0  0  0
    1.2079   -2.2539    0.0000 N   0  0  0  0  0  0  0  0  0  0  0  0
    0.7954   -2.9684    0.0000 C   0  0  0  0  0  0  0  0  0  0  0  0
   -0.0296   -2.9684    0.0000 C   0  0  0  0  0  0  0  0  0  0  0  0
   -0.4421   -2.2539    0.0000 C   0  0  0  0  0  0  0  0  0  0  0  0
   -1.2671   -2.2539    0.0000 C   0  0  0  0  0  0  0  0  0  0  0  0
   -1.6796   -2.9684    0.0000 C   0  0  0  0  0  0  0  0  0  0  0  0
   -2.5046   -2.9684    0.0000 C   0  0  0  0  0  0  0  0  0  0  0  0
   -2.9171   -3.6829    0.0000 C   0  0  0  0  0  0  0  0  0  0  0  0
   -2.9171   -2.2539    0.0000 C   0  0  0  0  0  0  0  0  0  0  0  0
   -2.5046   -1.5395    0.0000 C   0  0  0  0  0  0  0  0  0  0  0  0
   -1.6796   -1.5395    0.0000 C   0  0  0  0  0  0  0  0  0  0  0  0
   -1.2671   -0.8250    0.0000 F   0  0  0  0  0  0  0  0  0  0  0  0
   -0.0296   -1.5395    0.0000 C   0  0  0  0  0  0  0  0  0  0  0  0
    0.7954   -1.5395    0.0000 C   0  0  0  0  0  0  0  0  0  0  0  0
    1.2079   -0.8250    0.0000 O   0  0  0  0  0  0  0  0  0  0  0  0
    2.4454   -1.5395    0.0000 C   0  0  0  0  0  0  0  0  0  0  0  0
    3.2704   -1.5395    0.0000 C   0  0  0  0  0  0  0  0  0  0  0  0
    3.6829   -0.8250    0.0000 C   0  0  0  0  0  0  0  0  0  0  0  0
    3.2704   -0.1105    0.0000 C   0  0  0  0  0  0  0  0  0  0  0  0
    2.4454   -0.1105    0.0000 C   0  0  0  0  0  0  0  0  0  0  0  0
    2.0329   -0.8250    0.0000 N   0  0  0  0  0  0  0  0  0  0  0  0
  1  2  1  0  0  0  0
  2  3  1  0  0  0  0
  3  4  2  0  0  0  0
  3  5  1  0  0  0  0
  5  6  1  0  0  0  0
  6  7  4  0  0  0  0
  7  8  4  0  0  0  0
  8  9  4  0  0  0  0
  9 10  4  0  0  0  0
 10 11  4  0  0  0  0
  6 11  4  0  0  0  0
 10 12  1  0  0  0  0
 12 13  1  0  0  0  0
 13 14  2  0  0  0  0
 13 15  1  0  0  0  0
 15 16  1  6  0  0  0
 15 17  1  0  0  0  0
 17 18  1  0  0  0  0
 18 19  1  0  0  0  0
 19 20  1  0  0  0  0
 20 21  1  6  0  0  0
 21 22  1  0  0  0  0
 22 23  1  0  0  0  0
 23 24  1  0  0  0  0
 24 25  1  0  0  0  0
 25 26  4  0  0  0  0
 26 27  4  0  0  0  0
 27 28  1  0  0  0  0
 27 29  4  0  0  0  0
 29 30  4  0  0  0  0
 30 31  4  0  0  0  0
 25 31  4  0  0  0  0
 31 32  1  0  0  0  0
 24 33  2  0  0  0  0
 33 34  1  0  0  0  0
 21 34  1  0  0  0  0
 34 35  2  0  0  0  0
 20 36  1  0  0  0  0
 36 37  4  0  0  0  0
 37 38  4  0  0  0  0
  9 38  1  0  0  0  0
 38 39  4  0  0  0  0
 39 40  4  0  0  0  0
 40 41  4  0  0  0  0
 36 41  4  0  0  0  0
M  END
>  <CdId>
358414

>  <Mol Weight>
556.6272

>  <Formula>
C32H33FN4O4

>  <cmpd_chemblid>
CHEMBL4113983

>  <std_type>
Ki

>  <std_value>
7.24

>  <std_unit>
nM

>  <target_id>
CHEMBL2016

>  <target_name>
Coagulation factor IX

>  <organism>
Homo sapiens

>  <target_type>
SINGLE PROTEIN

$$$$

  Mrv0541 08052111042D          

 39 43  0  0  1  0            999 V2000
   -7.1275    1.4288    0.0000 C   0  0  0  0  0  0  0  0  0  0  0  0
   -6.3070    1.5150    0.0000 C   0  0  0  0  0  0  0  0  0  0  0  0
   -5.8945    2.2295    0.0000 N   0  0  0  0  0  0  0  0  0  0  0  0
   -5.0875    2.0580    0.0000 C   0  0  0  0  0  0  0  0  0  0  0  0
   -5.0013    1.2375    0.0000 N   0  0  0  0  0  0  0  0  0  0  0  0
   -4.2868    0.8250    0.0000 C   0  0  0  0  0  0  0  0  0  0  0  0
   -3.5724    1.2375    0.0000 C   0  0  0  0  0  0  0  0  0  0  0  0
   -2.8579    0.8250    0.0000 C   0  0  0  0  0  0  0  0  0  0  0  0
   -2.1434    1.2375    0.0000 Cl  0  0  0  0  0  0  0  0  0  0  0  0
   -2.8579    0.0000    0.0000 C   0  0  0  0  0  0  0  0  0  0  0  0
   -2.1434   -0.4125    0.0000 C   0  0  0  0  0  0  0  0  0  0  0  0
   -2.1434   -1.2375    0.0000 O   0  0  0  0  0  0  0  0  0  0  0  0
   -1.4289    0.0000    0.0000 N   0  0  0  0  0  0  0  0  0  0  0  0
   -0.7145   -0.4125    0.0000 C   0  0  0  0  0  0  0  0  0  0  0  0
    0.0000    0.0000    0.0000 C   0  0  1  0  0  0  0  0  0  0  0  0
    0.0000    0.8250    0.0000 C   0  0  0  0  0  0  0  0  0  0  0  0
   -0.7145    1.2375    0.0000 C   0  0  0  0  0  0  0  0  0  0  0  0
   -0.7145    2.0625    0.0000 C   0  0  0  0  0  0  0  0  0  0  0  0
    0.0000    2.4750    0.0000 C   0  0  0  0  0  0  0  0  0  0  0  0
    0.7145    2.0625    0.0000 C   0  0  0  0  0  0  0  0  0  0  0  0
    1.4289    2.4750    0.0000 F   0  0  0  0  0  0  0  0  0  0  0  0
    0.7145    1.2375    0.0000 C   0  0  0  0  0  0  0  0  0  0  0  0
    0.7145   -0.4125    0.0000 C   0  0  0  0  0  0  0  0  0  0  0  0
    1.4289    0.0000    0.0000 N   0  0  0  0  0  0  0  0  0  0  0  0
    2.1434   -0.4125    0.0000 C   0  0  0  0  0  0  0  0  0  0  0  0
    2.8579    0.0000    0.0000 C   0  0  0  0  0  0  0  0  0  0  0  0
    2.8579    0.8250    0.0000 F   0  0  0  0  0  0  0  0  0  0  0  0
    3.5724   -0.4125    0.0000 C   0  0  0  0  0  0  0  0  0  0  0  0
    3.5724   -1.2375    0.0000 C   0  0  0  0  0  0  0  0  0  0  0  0
    2.8579   -1.6500    0.0000 C   0  0  0  0  0  0  0  0  0  0  0  0
    2.8579   -2.4750    0.0000 C   0  0  0  0  0  0  0  0  0  0  0  0
    2.1434   -1.2375    0.0000 C   0  0  0  0  0  0  0  0  0  0  0  0
    1.4289   -1.6500    0.0000 C   0  0  0  0  0  0  0  0  0  0  0  0
    1.4289   -2.4750    0.0000 O   0  0  0  0  0  0  0  0  0  0  0  0
    0.7145   -1.2375    0.0000 N   0  0  0  0  0  0  0  0  0  0  0  0
   -3.5724   -0.4125    0.0000 C   0  0  0  0  0  0  0  0  0  0  0  0
   -3.5724   -1.2375    0.0000 Cl  0  0  0  0  0  0  0  0  0  0  0  0
   -4.2868    0.0000    0.0000 C   0  0  0  0  0  0  0  0  0  0  0  0
   -5.7550    0.9019    0.0000 N   0  0  0  0  0  0  0  0  0  0  0  0
  1  2  1  0  0  0  0
  2  3  4  0  0  0  0
  3  4  4  0  0  0  0
  4  5  4  0  0  0  0
  5  6  1  0  0  0  0
  6  7  4  0  0  0  0
  7  8  4  0  0  0  0
  8  9  1  0  0  0  0
  8 10  4  0  0  0  0
 10 11  1  0  0  0  0
 11 12  2  0  0  0  0
 11 13  1  0  0  0  0
 13 14  1  0  0  0  0
 14 15  1  0  0  0  0
 15 16  1  0  0  0  0
 16 17  4  0  0  0  0
 17 18  4  0  0  0  0
 18 19  4  0  0  0  0
 19 20  4  0  0  0  0
 20 21  1  0  0  0  0
 20 22  4  0  0  0  0
 16 22  4  0  0  0  0
 15 23  1  1  0  0  0
 23 24  4  0  0  0  0
 24 25  4  0  0  0  0
 25 26  4  0  0  0  0
 26 27  1  0  0  0  0
 26 28  4  0  0  0  0
 28 29  4  0  0  0  0
 29 30  4  0  0  0  0
 30 31  1  0  0  0  0
 30 32  4  0  0  0  0
 25 32  4  0  0  0  0
 32 33  4  0  0  0  0
 33 34  2  0  0  0  0
 33 35  4  0  0  0  0
 23 35  4  0  0  0  0
 10 36  4  0  0  0  0
 36 37  1  0  0  0  0
 36 38  4  0  0  0  0
  6 38  4  0  0  0  0
  5 39  4  0  0  0  0
  2 39  4  0  0  0  0
M  STY  1   1 DAT
M  SAL   1  1  35
M  SDT   1 MRV_IMPLICIT_H                                        
M  SDD   1     0.0000    0.0000    DR    ALL  0       0  
M  SED   1 IMPL_H1
M  END
>  <CdId>
358415

>  <Mol Weight>
569.39

>  <Formula>
C27H20Cl2F2N6O2

>  <cmpd_chemblid>
CHEMBL3627899

>  <std_type>
Ki

>  <std_value>
1.0

>  <std_unit>
nM

>  <target_id>
CHEMBL2016

>  <target_name>
Coagulation factor IX

>  <organism>
Homo sapiens

>  <target_type>
SINGLE PROTEIN

$$$$

  Mrv0541 08052111042D          

 36 39  0  0  1  0            999 V2000
   -6.0858    4.6798    0.0000 C   0  0  0  0  0  0  0  0  0  0  0  0
   -5.2653    4.7660    0.0000 N   0  0  0  0  0  0  0  0  0  0  0  0
   -4.9297    5.5197    0.0000 C   0  0  0  0  0  0  0  0  0  0  0  0
   -4.7804    4.0986    0.0000 C   0  0  0  0  0  0  0  0  0  0  0  0
   -3.9599    4.1848    0.0000 C   0  0  0  0  0  0  0  0  0  0  0  0
   -3.4749    3.5174    0.0000 C   0  0  0  0  0  0  0  0  0  0  0  0
   -3.8105    2.7637    0.0000 C   0  0  0  0  0  0  0  0  0  0  0  0
   -3.3256    2.0962    0.0000 S   0  0  0  0  0  0  0  0  0  0  0  0
   -3.9930    1.6113    0.0000 O   0  0  0  0  0  0  0  0  0  0  0  0
   -2.6581    2.5812    0.0000 O   0  0  0  0  0  0  0  0  0  0  0  0
   -2.8407    1.4288    0.0000 N   0  0  0  0  0  0  0  0  0  0  0  0
   -2.0202    1.5150    0.0000 C   0  0  1  0  0  0  0  0  0  0  0  0
   -1.6077    2.2295    0.0000 C   0  0  0  0  0  0  0  0  0  0  0  0
   -0.8007    2.0580    0.0000 C   0  0  0  0  0  0  0  0  0  0  0  0
   -0.7145    1.2375    0.0000 N   0  0  0  0  0  0  0  0  0  0  0  0
    0.0000    0.8250    0.0000 C   0  0  2  0  0  0  0  0  0  0  0  0
    0.0000    0.0000    0.0000 C   0  0  0  0  0  0  0  0  0  0  0  0
    0.7145   -0.4125    0.0000 C   0  0  0  0  0  0  0  0  0  0  0  0
    1.4289    0.0000    0.0000 C   0  0  0  0  0  0  0  0  0  0  0  0
    2.1434   -0.4125    0.0000 C   0  0  0  0  0  0  0  0  0  0  0  0
    2.8579    0.0000    0.0000 C   0  0  0  0  0  0  0  0  0  0  0  0
    3.5724   -0.4125    0.0000 C   0  0  0  0  0  0  0  0  0  0  0  0
    3.5724   -1.2375    0.0000 N   0  0  0  0  0  0  0  0  0  0  0  0
    2.8579   -1.6500    0.0000 C   0  0  0  0  0  0  0  0  0  0  0  0
    2.8579   -2.4750    0.0000 N   0  0  0  0  0  0  0  0  0  0  0  0
    2.1434   -1.2375    0.0000 C   0  0  0  0  0  0  0  0  0  0  0  0
    1.4289   -1.6500    0.0000 C   0  0  0  0  0  0  0  0  0  0  0  0
    0.7145   -1.2375    0.0000 C   0  0  0  0  0  0  0  0  0  0  0  0
    0.0000   -1.6500    0.0000 F   0  0  0  0  0  0  0  0  0  0  0  0
    0.7145    1.2375    0.0000 C   0  0  0  0  0  0  0  0  0  0  0  0
    0.7145    2.0625    0.0000 O   0  0  0  0  0  0  0  0  0  0  0  0
    1.4289    0.8250    0.0000 O   0  0  0  0  0  0  0  0  0  0  0  0
   -1.4681    0.9019    0.0000 C   0  0  0  0  0  0  0  0  0  0  0  0
   -1.6397    0.0950    0.0000 O   0  0  0  0  0  0  0  0  0  0  0  0
   -4.6310    2.6774    0.0000 C   0  0  0  0  0  0  0  0  0  0  0  0
   -5.1159    3.3449    0.0000 N   0  0  0  0  0  0  0  0  0  0  0  0
  1  2  1  0  0  0  0
  2  3  1  0  0  0  0
  2  4  1  0  0  0  0
  4  5  4  0  0  0  0
  5  6  4  0  0  0  0
  6  7  4  0  0  0  0
  7  8  1  0  0  0  0
  8  9  2  0  0  0  0
  8 10  2  0  0  0  0
  8 11  1  0  0  0  0
 12 11  1  1  0  0  0
 12 13  1  0  0  0  0
 13 14  1  0  0  0  0
 14 15  1  0  0  0  0
 16 15  1  1  0  0  0
 16 17  1  0  0  0  0
 17 18  1  0  0  0  0
 18 19  4  0  0  0  0
 19 20  4  0  0  0  0
 20 21  4  0  0  0  0
 21 22  4  0  0  0  0
 22 23  4  0  0  0  0
 23 24  4  0  0  0  0
 24 25  1  0  0  0  0
 24 26  4  0  0  0  0
 20 26  4  0  0  0  0
 26 27  4  0  0  0  0
 27 28  4  0  0  0  0
 18 28  4  0  0  0  0
 28 29  1  0  0  0  0
 16 30  1  0  0  0  0
 30 31  2  0  0  0  0
 30 32  1  0  0  0  0
 15 33  1  0  0  0  0
 12 33  1  0  0  0  0
 33 34  2  0  0  0  0
  7 35  4  0  0  0  0
 35 36  4  0  0  0  0
  4 36  4  0  0  0  0
M  END
>  <CdId>
358416

>  <Mol Weight>
516.545

>  <Formula>
C23H25FN6O5S

>  <cmpd_chemblid>
CHEMBL3953446

>  <std_type>
Ki

>  <std_value>
55.0

>  <std_unit>
nM

>  <target_id>
CHEMBL2016

>  <target_name>
Coagulation factor IX

>  <organism>
Homo sapiens

>  <target_type>
SINGLE PROTEIN

$$$$

  Mrv0541 08052111042D          

 32 36  0  0  1  0            999 V2000
    0.8838   -2.1500    0.0000 N   0  0  0  0  0  0  0  0  0  0  0  0
    1.1387   -1.3654    0.0000 C   0  0  0  0  0  0  0  0  0  0  0  0
    0.6538   -0.6979    0.0000 N   0  0  0  0  0  0  0  0  0  0  0  0
    1.1387   -0.0305    0.0000 O   0  0  0  0  0  0  0  0  0  0  0  0
    1.9233   -0.2854    0.0000 C   0  0  0  0  0  0  0  0  0  0  0  0
    2.6378    0.1271    0.0000 C   0  0  0  0  0  0  0  0  0  0  0  0
    2.6378    0.9521    0.0000 N   0  0  0  0  0  0  0  0  0  0  0  0
    1.9704    1.4370    0.0000 C   0  0  0  0  0  0  0  0  0  0  0  0
    2.2253    2.2216    0.0000 C   0  0  0  0  0  0  0  0  0  0  0  0
    3.0503    2.2216    0.0000 C   0  0  1  0  0  0  0  0  0  0  0  0
    3.5352    2.8890    0.0000 N   0  0  0  0  0  0  0  0  0  0  0  0
    3.1997    3.6427    0.0000 C   0  0  0  0  0  0  0  0  0  0  0  0
    2.3792    3.7290    0.0000 O   0  0  0  0  0  0  0  0  0  0  0  0
    3.6846    4.3102    0.0000 C   0  0  0  0  0  0  0  0  0  0  0  0
    3.3490    5.0638    0.0000 C   0  0  0  0  0  0  0  0  0  0  0  0
    3.8340    5.7313    0.0000 C   0  0  0  0  0  0  0  0  0  0  0  0
    4.6544    5.6450    0.0000 C   0  0  0  0  0  0  0  0  0  0  0  0
    5.1394    6.3125    0.0000 C   0  0  0  0  0  0  0  0  0  0  0  0
    4.8038    7.0661    0.0000 C   0  0  0  0  0  0  0  0  0  0  0  0
    5.2887    7.7336    0.0000 N   0  0  0  0  0  0  0  0  0  0  0  0
    6.1092    7.6474    0.0000 C   0  0  0  0  0  0  0  0  0  0  0  0
    6.4448    6.8937    0.0000 N   0  0  0  0  0  0  0  0  0  0  0  0
    5.9599    6.2262    0.0000 C   0  0  0  0  0  0  0  0  0  0  0  0
    4.9900    4.8914    0.0000 C   0  0  0  0  0  0  0  0  0  0  0  0
    4.5051    4.2239    0.0000 C   0  0  0  0  0  0  0  0  0  0  0  0
    4.8406    3.4702    0.0000 Cl  0  0  0  0  0  0  0  0  0  0  0  0
    3.3053    1.4370    0.0000 C   0  0  0  0  0  0  0  0  0  0  0  0
    3.3523   -0.2854    0.0000 N   0  0  0  0  0  0  0  0  0  0  0  0
    3.3523   -1.1104    0.0000 C   0  0  0  0  0  0  0  0  0  0  0  0
    2.6378   -1.5229    0.0000 C   0  0  0  0  0  0  0  0  0  0  0  0
    2.6378   -2.3479    0.0000 Cl  0  0  0  0  0  0  0  0  0  0  0  0
    1.9233   -1.1104    0.0000 C   0  0  0  0  0  0  0  0  0  0  0  0
  1  2  1  0  0  0  0
  2  3  4  0  0  0  0
  3  4  4  0  0  0  0
  4  5  4  0  0  0  0
  5  6  4  0  0  0  0
  6  7  1  0  0  0  0
  7  8  1  0  0  0  0
  8  9  1  0  0  0  0
  9 10  1  0  0  0  0
 10 11  1  1  0  0  0
 11 12  1  0  0  0  0
 12 13  2  0  0  0  0
 12 14  1  0  0  0  0
 14 15  4  0  0  0  0
 15 16  4  0  0  0  0
 16 17  4  0  0  0  0
 17 18  1  0  0  0  0
 18 19  4  0  0  0  0
 19 20  4  0  0  0  0
 20 21  4  0  0  0  0
 21 22  4  0  0  0  0
 22 23  4  0  0  0  0
 18 23  4  0  0  0  0
 17 24  4  0  0  0  0
 24 25  4  0  0  0  0
 14 25  4  0  0  0  0
 25 26  1  0  0  0  0
 10 27  1  0  0  0  0
  7 27  1  0  0  0  0
  6 28  4  0  0  0  0
 28 29  4  0  0  0  0
 29 30  4  0  0  0  0
 30 31  1  0  0  0  0
 30 32  4  0  0  0  0
  2 32  4  0  0  0  0
  5 32  4  0  0  0  0
M  END
>  <CdId>
358418

>  <Mol Weight>
470.311

>  <Formula>
C21H17Cl2N7O2

>  <cmpd_chemblid>
CHEMBL4101793

>  <std_type>
Ki

>  <std_value>
13.0

>  <std_unit>
nM

>  <target_id>
CHEMBL2016

>  <target_name>
Coagulation factor IX

>  <organism>
Homo sapiens

>  <target_type>
SINGLE PROTEIN

$$$$

  Mrv0541 08052111042D          

 38 42  0  0  1  0            999 V2000
    3.9849    3.9849    0.0000 C   0  0  0  0  0  0  0  0  0  0  0  0
    4.3974    3.2704    0.0000 C   0  0  2  0  0  0  0  0  0  0  0  0
    5.2224    3.2704    0.0000 C   0  0  0  0  0  0  0  0  0  0  0  0
    5.6349    2.5559    0.0000 C   0  0  0  0  0  0  0  0  0  0  0  0
    6.4599    2.5559    0.0000 C   0  0  0  0  0  0  0  0  0  0  0  0
    6.8724    1.8414    0.0000 C   0  0  2  0  0  0  0  0  0  0  0  0
    7.6974    1.8414    0.0000 N   0  0  0  0  0  0  0  0  0  0  0  0
    8.1099    2.5559    0.0000 C   0  0  0  0  0  0  0  0  0  0  0  0
    8.9349    2.5559    0.0000 C   0  0  0  0  0  0  0  0  0  0  0  0
    9.3474    1.8414    0.0000 C   0  0  0  0  0  0  0  0  0  0  0  0
   10.1724    1.8414    0.0000 C   0  0  0  0  0  0  0  0  0  0  0  0
   10.5849    2.5559    0.0000 C   0  0  0  0  0  0  0  0  0  0  0  0
   10.1724    3.2704    0.0000 F   0  0  0  0  0  0  0  0  0  0  0  0
   11.4099    2.5559    0.0000 C   0  0  0  0  0  0  0  0  0  0  0  0
   11.8224    1.8414    0.0000 C   0  0  0  0  0  0  0  0  0  0  0  0
   11.4099    1.1270    0.0000 C   0  0  0  0  0  0  0  0  0  0  0  0
   11.8224    0.4125    0.0000 Cl  0  0  0  0  0  0  0  0  0  0  0  0
   10.5849    1.1270    0.0000 C   0  0  0  0  0  0  0  0  0  0  0  0
   10.1724    0.4125    0.0000 F   0  0  0  0  0  0  0  0  0  0  0  0
    8.9349    1.1270    0.0000 C   0  0  0  0  0  0  0  0  0  0  0  0
    8.1099    1.1270    0.0000 C   0  0  0  0  0  0  0  0  0  0  0  0
    7.6974    0.4125    0.0000 O   0  0  0  0  0  0  0  0  0  0  0  0
    6.4599    1.1270    0.0000 C   0  0  0  0  0  0  0  0  0  0  0  0
    5.6349    1.1270    0.0000 C   0  0  0  0  0  0  0  0  0  0  0  0
    5.2224    0.4125    0.0000 C   0  0  0  0  0  0  0  0  0  0  0  0
    5.6349   -0.3020    0.0000 C   0  0  0  0  0  0  0  0  0  0  0  0
    6.4599   -0.3020    0.0000 C   0  0  0  0  0  0  0  0  0  0  0  0
    6.8724    0.4125    0.0000 N   0  0  0  0  0  0  0  0  0  0  0  0
    4.3974    0.4125    0.0000 C   0  0  0  0  0  0  0  0  0  0  0  0
    3.9849   -0.3020    0.0000 C   0  0  0  0  0  0  0  0  0  0  0  0
    3.1599   -0.3020    0.0000 C   0  0  0  0  0  0  0  0  0  0  0  0
    2.7474    0.4125    0.0000 C   0  0  0  0  0  0  0  0  0  0  0  0
    1.9224    0.4125    0.0000 O   0  0  0  0  0  0  0  0  0  0  0  0
    3.1599    1.1270    0.0000 C   0  0  0  0  0  0  0  0  0  0  0  0
    3.9849    1.1270    0.0000 C   0  0  0  0  0  0  0  0  0  0  0  0
    4.3974    1.8414    0.0000 N   0  0  0  0  0  0  0  0  0  0  0  0
    3.9849    2.5559    0.0000 C   0  0  0  0  0  0  0  0  0  0  0  0
    3.1599    2.5559    0.0000 O   0  0  0  0  0  0  0  0  0  0  0  0
  2  1  1  6  0  0  0
  2  3  1  0  0  0  0
  3  4  1  0  0  0  0
  4  5  1  0  0  0  0
  5  6  1  0  0  0  0
  6  7  1  6  0  0  0
  7  8  1  0  0  0  0
  8  9  1  0  0  0  0
  9 10  1  0  0  0  0
 10 11  1  0  0  0  0
 11 12  4  0  0  0  0
 12 13  1  0  0  0  0
 12 14  4  0  0  0  0
 14 15  4  0  0  0  0
 15 16  4  0  0  0  0
 16 17  1  0  0  0  0
 16 18  4  0  0  0  0
 11 18  4  0  0  0  0
 18 19  1  0  0  0  0
 10 20  2  0  0  0  0
 20 21  1  0  0  0  0
  7 21  1  0  0  0  0
 21 22  2  0  0  0  0
  6 23  1  0  0  0  0
 23 24  4  0  0  0  0
 24 25  4  0  0  0  0
 25 26  4  0  0  0  0
 26 27  4  0  0  0  0
 27 28  4  0  0  0  0
 23 28  4  0  0  0  0
 25 29  1  0  0  0  0
 29 30  4  0  0  0  0
 30 31  4  0  0  0  0
 31 32  4  0  0  0  0
 32 33  1  0  0  0  0
 32 34  4  0  0  0  0
 34 35  4  0  0  0  0
 29 35  4  0  0  0  0
 35 36  1  0  0  0  0
 36 37  1  0  0  0  0
  2 37  1  0  0  0  0
 37 38  2  0  0  0  0
M  END
>  <CdId>
358419

>  <Mol Weight>
537.985

>  <Formula>
C29H26ClF2N3O3

>  <cmpd_chemblid>
CHEMBL4108998

>  <std_type>
Ki

>  <std_value>
1.25

>  <std_unit>
nM

>  <target_id>
CHEMBL2016

>  <target_name>
Coagulation factor IX

>  <organism>
Homo sapiens

>  <target_type>
SINGLE PROTEIN

$$$$

  Mrv0541 08052111042D          

 38 42  0  0  0  0            999 V2000
    4.0668    2.3479    0.0000 C   0  0  0  0  0  0  0  0  0  0  0  0
    3.3523    1.9354    0.0000 C   0  0  0  0  0  0  0  0  0  0  0  0
    3.3523    1.1104    0.0000 C   0  0  0  0  0  0  0  0  0  0  0  0
    2.6378    0.6979    0.0000 C   0  0  0  0  0  0  0  0  0  0  0  0
    1.9233    1.1104    0.0000 C   0  0  0  0  0  0  0  0  0  0  0  0
    1.9233    1.9354    0.0000 C   0  0  0  0  0  0  0  0  0  0  0  0
    2.6378    2.3479    0.0000 C   0  0  0  0  0  0  0  0  0  0  0  0
    1.1387    2.1904    0.0000 N   0  0  0  0  0  0  0  0  0  0  0  0
    0.6538    1.5229    0.0000 C   0  0  0  0  0  0  0  0  0  0  0  0
    1.1387    0.8555    0.0000 N   0  0  0  0  0  0  0  0  0  0  0  0
    0.8838    0.0709    0.0000 C   0  0  0  0  0  0  0  0  0  0  0  0
    1.4358   -0.5422    0.0000 C   0  0  0  0  0  0  0  0  0  0  0  0
    1.1809   -1.3268    0.0000 C   0  0  0  0  0  0  0  0  0  0  0  0
    0.3739   -1.4984    0.0000 C   0  0  0  0  0  0  0  0  0  0  0  0
    0.1190   -2.2830    0.0000 N   0  0  0  0  0  0  0  0  0  0  0  0
   -0.6880   -2.4545    0.0000 C   0  0  0  0  0  0  0  0  0  0  0  0
   -1.2400   -1.8414    0.0000 O   0  0  0  0  0  0  0  0  0  0  0  0
   -0.9429   -3.2391    0.0000 C   0  0  0  0  0  0  0  0  0  0  0  0
   -0.4580   -3.9066    0.0000 C   0  0  0  0  0  0  0  0  0  0  0  0
   -0.9429   -4.5740    0.0000 C   0  0  0  0  0  0  0  0  0  0  0  0
   -0.6880   -5.3586    0.0000 C   0  0  0  0  0  0  0  0  0  0  0  0
   -0.4331   -6.1433    0.0000 F   0  0  0  0  0  0  0  0  0  0  0  0
   -1.4726   -5.6136    0.0000 F   0  0  0  0  0  0  0  0  0  0  0  0
    0.0966   -5.1037    0.0000 F   0  0  0  0  0  0  0  0  0  0  0  0
   -1.7276   -4.3191    0.0000 N   0  0  0  0  0  0  0  0  0  0  0  0
   -1.7276   -3.4941    0.0000 N   0  0  0  0  0  0  0  0  0  0  0  0
   -2.3950   -3.0091    0.0000 C   0  0  0  0  0  0  0  0  0  0  0  0
   -3.1487   -3.3447    0.0000 C   0  0  0  0  0  0  0  0  0  0  0  0
   -3.8161   -2.8598    0.0000 C   0  0  0  0  0  0  0  0  0  0  0  0
   -3.7299   -2.0393    0.0000 C   0  0  0  0  0  0  0  0  0  0  0  0
   -2.9762   -1.7037    0.0000 C   0  0  0  0  0  0  0  0  0  0  0  0
   -2.8900   -0.8833    0.0000 C   0  0  0  0  0  0  0  0  0  0  0  0
   -3.5574   -0.3983    0.0000 N   0  0  0  0  0  0  0  0  0  0  0  0
   -2.1363   -0.5477    0.0000 N   0  0  0  0  0  0  0  0  0  0  0  0
   -2.3088   -2.1887    0.0000 C   0  0  0  0  0  0  0  0  0  0  0  0
   -0.1781   -0.8853    0.0000 C   0  0  0  0  0  0  0  0  0  0  0  0
   -0.9851   -1.0568    0.0000 F   0  0  0  0  0  0  0  0  0  0  0  0
    0.0768   -0.1006    0.0000 C   0  0  0  0  0  0  0  0  0  0  0  0
  1  2  1  0  0  0  0
  2  3  4  0  0  0  0
  3  4  4  0  0  0  0
  4  5  4  0  0  0  0
  5  6  4  0  0  0  0
  6  7  4  0  0  0  0
  2  7  4  0  0  0  0
  6  8  4  0  0  0  0
  8  9  4  0  0  0  0
  9 10  4  0  0  0  0
  5 10  4  0  0  0  0
 10 11  1  0  0  0  0
 11 12  4  0  0  0  0
 12 13  4  0  0  0  0
 13 14  4  0  0  0  0
 14 15  1  0  0  0  0
 15 16  1  0  0  0  0
 16 17  2  0  0  0  0
 16 18  1  0  0  0  0
 18 19  4  0  0  0  0
 19 20  4  0  0  0  0
 20 21  1  0  0  0  0
 21 22  1  0  0  0  0
 21 23  1  0  0  0  0
 21 24  1  0  0  0  0
 20 25  4  0  0  0  0
 25 26  4  0  0  0  0
 18 26  4  0  0  0  0
 26 27  1  0  0  0  0
 27 28  4  0  0  0  0
 28 29  4  0  0  0  0
 29 30  4  0  0  0  0
 30 31  4  0  0  0  0
 31 32  1  0  0  0  0
 32 33  2  0  0  0  0
 32 34  1  0  0  0  0
 31 35  4  0  0  0  0
 27 35  4  0  0  0  0
 14 36  4  0  0  0  0
 36 37  1  0  0  0  0
 36 38  4  0  0  0  0
 11 38  4  0  0  0  0
M  END
>  <CdId>
358420

>  <Mol Weight>
521.469

>  <Formula>
C26H19F4N7O

>  <cmpd_chemblid>
CHEMBL186693

>  <std_type>
Ki

>  <std_value>
10.0

>  <std_unit>
nM

>  <target_id>
CHEMBL2016

>  <target_name>
Coagulation factor IX

>  <organism>
Homo sapiens

>  <target_type>
SINGLE PROTEIN

$$$$

  Mrv0541 08052111042D          

 32 36  0  0  1  0            999 V2000
   -1.0872    8.4625    0.0000 C   0  0  0  0  0  0  0  0  0  0  0  0
   -0.3026    8.2075    0.0000 C   0  0  0  0  0  0  0  0  0  0  0  0
    0.3649    8.6925    0.0000 N   0  0  0  0  0  0  0  0  0  0  0  0
    1.0323    8.2075    0.0000 C   0  0  0  0  0  0  0  0  0  0  0  0
    0.7774    7.4229    0.0000 N   0  0  0  0  0  0  0  0  0  0  0  0
    1.2623    6.7555    0.0000 C   0  0  0  0  0  0  0  0  0  0  0  0
    2.0828    6.8417    0.0000 C   0  0  0  0  0  0  0  0  0  0  0  0
    2.5677    6.1743    0.0000 C   0  0  0  0  0  0  0  0  0  0  0  0
    2.2321    5.4206    0.0000 C   0  0  0  0  0  0  0  0  0  0  0  0
    2.7171    4.7532    0.0000 C   0  0  0  0  0  0  0  0  0  0  0  0
    3.5375    4.8394    0.0000 O   0  0  0  0  0  0  0  0  0  0  0  0
    2.3815    3.9995    0.0000 N   0  0  0  0  0  0  0  0  0  0  0  0
    2.8664    3.3320    0.0000 C   0  0  2  0  0  0  0  0  0  0  0  0
    3.6914    3.3320    0.0000 C   0  0  0  0  0  0  0  0  0  0  0  0
    3.9464    2.5474    0.0000 C   0  0  0  0  0  0  0  0  0  0  0  0
    3.2789    2.0625    0.0000 N   0  0  0  0  0  0  0  0  0  0  0  0
    3.2789    1.2375    0.0000 C   0  0  0  0  0  0  0  0  0  0  0  0
    3.9934    0.8250    0.0000 N   0  0  0  0  0  0  0  0  0  0  0  0
    3.9934    0.0000    0.0000 C   0  0  0  0  0  0  0  0  0  0  0  0
    3.2789   -0.4125    0.0000 C   0  0  0  0  0  0  0  0  0  0  0  0
    3.2789   -1.2375    0.0000 Cl  0  0  0  0  0  0  0  0  0  0  0  0
    2.5645    0.0000    0.0000 C   0  0  0  0  0  0  0  0  0  0  0  0
    1.7798   -0.2549    0.0000 C   0  0  0  0  0  0  0  0  0  0  0  0
    1.5249   -1.0396    0.0000 N   0  0  0  0  0  0  0  0  0  0  0  0
    1.2949    0.4125    0.0000 N   0  0  0  0  0  0  0  0  0  0  0  0
    1.7798    1.0799    0.0000 O   0  0  0  0  0  0  0  0  0  0  0  0
    2.5645    0.8250    0.0000 C   0  0  0  0  0  0  0  0  0  0  0  0
    2.6115    2.5474    0.0000 C   0  0  0  0  0  0  0  0  0  0  0  0
    1.4117    5.3344    0.0000 C   0  0  0  0  0  0  0  0  0  0  0  0
    1.0761    4.5807    0.0000 Cl  0  0  0  0  0  0  0  0  0  0  0  0
    0.9267    6.0018    0.0000 C   0  0  0  0  0  0  0  0  0  0  0  0
   -0.0476    7.4229    0.0000 N   0  0  0  0  0  0  0  0  0  0  0  0
  1  2  1  0  0  0  0
  2  3  4  0  0  0  0
  3  4  4  0  0  0  0
  4  5  4  0  0  0  0
  5  6  1  0  0  0  0
  6  7  4  0  0  0  0
  7  8  4  0  0  0  0
  8  9  4  0  0  0  0
  9 10  1  0  0  0  0
 10 11  2  0  0  0  0
 10 12  1  0  0  0  0
 13 12  1  6  0  0  0
 13 14  1  0  0  0  0
 14 15  1  0  0  0  0
 15 16  1  0  0  0  0
 16 17  1  0  0  0  0
 17 18  4  0  0  0  0
 18 19  4  0  0  0  0
 19 20  4  0  0  0  0
 20 21  1  0  0  0  0
 20 22  4  0  0  0  0
 22 23  4  0  0  0  0
 23 24  1  0  0  0  0
 23 25  4  0  0  0  0
 25 26  4  0  0  0  0
 26 27  4  0  0  0  0
 17 27  4  0  0  0  0
 22 27  4  0  0  0  0
 16 28  1  0  0  0  0
 13 28  1  0  0  0  0
  9 29  4  0  0  0  0
 29 30  1  0  0  0  0
 29 31  4  0  0  0  0
  6 31  4  0  0  0  0
  5 32  4  0  0  0  0
  2 32  4  0  0  0  0
M  END
>  <CdId>
358421

>  <Mol Weight>
473.315

>  <Formula>
C20H18Cl2N8O2

>  <cmpd_chemblid>
CHEMBL4065316

>  <std_type>
Ki

>  <std_value>
16.5

>  <std_unit>
nM

>  <target_id>
CHEMBL2016

>  <target_name>
Coagulation factor IX

>  <organism>
Homo sapiens

>  <target_type>
SINGLE PROTEIN

$$$$

  Mrv0541 08052111042D          

 38 42  0  0  1  0            999 V2000
    3.3000   -2.2539    0.0000 C   0  0  0  0  0  0  0  0  0  0  0  0
    2.8875   -1.5395    0.0000 C   0  0  0  0  0  0  0  0  0  0  0  0
    3.3000   -0.8250    0.0000 C   0  0  0  0  0  0  0  0  0  0  0  0
    2.8875   -0.1105    0.0000 C   0  0  0  0  0  0  0  0  0  0  0  0
    2.0625   -0.1105    0.0000 C   0  0  0  0  0  0  0  0  0  0  0  0
    1.6500   -0.8250    0.0000 C   0  0  0  0  0  0  0  0  0  0  0  0
    2.0625   -1.5395    0.0000 C   0  0  0  0  0  0  0  0  0  0  0  0
    0.8250   -0.8250    0.0000 C   0  0  0  0  0  0  0  0  0  0  0  0
    0.4125   -1.5395    0.0000 C   0  0  0  0  0  0  0  0  0  0  0  0
   -0.4125   -1.5395    0.0000 C   0  0  0  0  0  0  0  0  0  0  0  0
   -0.8250   -0.8250    0.0000 N   0  0  0  0  0  0  0  0  0  0  0  0
   -0.4125   -0.1105    0.0000 C   0  0  0  0  0  0  0  0  0  0  0  0
    0.4125   -0.1105    0.0000 C   0  0  0  0  0  0  0  0  0  0  0  0
   -0.8250    0.6039    0.0000 C   0  0  1  0  0  0  0  0  0  0  0  0
   -1.6500    0.6039    0.0000 N   0  0  0  0  0  0  0  0  0  0  0  0
   -2.0625   -0.1105    0.0000 C   0  0  0  0  0  0  0  0  0  0  0  0
   -2.8875   -0.1105    0.0000 C   0  0  0  0  0  0  0  0  0  0  0  0
   -3.3000    0.6039    0.0000 C   0  0  0  0  0  0  0  0  0  0  0  0
   -4.1250    0.6039    0.0000 C   0  0  0  0  0  0  0  0  0  0  0  0
   -4.5375   -0.1105    0.0000 C   0  0  0  0  0  0  0  0  0  0  0  0
   -4.1250   -0.8250    0.0000 F   0  0  0  0  0  0  0  0  0  0  0  0
   -5.3625   -0.1105    0.0000 C   0  0  0  0  0  0  0  0  0  0  0  0
   -5.7750    0.6039    0.0000 C   0  0  0  0  0  0  0  0  0  0  0  0
   -5.3625    1.3184    0.0000 C   0  0  0  0  0  0  0  0  0  0  0  0
   -5.7750    2.0329    0.0000 Cl  0  0  0  0  0  0  0  0  0  0  0  0
   -4.5375    1.3184    0.0000 C   0  0  0  0  0  0  0  0  0  0  0  0
   -4.1250    2.0329    0.0000 F   0  0  0  0  0  0  0  0  0  0  0  0
   -2.8875    1.3184    0.0000 C   0  0  0  0  0  0  0  0  0  0  0  0
   -2.0625    1.3184    0.0000 C   0  0  0  0  0  0  0  0  0  0  0  0
   -1.6500    2.0329    0.0000 O   0  0  0  0  0  0  0  0  0  0  0  0
   -0.4125    1.3184    0.0000 C   0  0  0  0  0  0  0  0  0  0  0  0
    0.4125    1.3184    0.0000 C   0  0  0  0  0  0  0  0  0  0  0  0
    0.8250    2.0329    0.0000 C   0  0  0  0  0  0  0  0  0  0  0  0
    1.6500    2.0329    0.0000 C   0  0  1  0  0  0  0  0  0  0  0  0
    2.0625    2.7474    0.0000 C   0  0  0  0  0  0  0  0  0  0  0  0
    2.0625    1.3184    0.0000 C   0  0  0  0  0  0  0  0  0  0  0  0
    2.8875    1.3184    0.0000 O   0  0  0  0  0  0  0  0  0  0  0  0
    1.6500    0.6039    0.0000 N   0  0  0  0  0  0  0  0  0  0  0  0
  1  2  1  0  0  0  0
  2  3  4  0  0  0  0
  3  4  4  0  0  0  0
  4  5  4  0  0  0  0
  5  6  4  0  0  0  0
  6  7  4  0  0  0  0
  2  7  4  0  0  0  0
  6  8  1  0  0  0  0
  8  9  4  0  0  0  0
  9 10  4  0  0  0  0
 10 11  4  0  0  0  0
 11 12  4  0  0  0  0
 12 13  4  0  0  0  0
  8 13  4  0  0  0  0
 12 14  1  0  0  0  0
 14 15  1  1  0  0  0
 15 16  1  0  0  0  0
 16 17  1  0  0  0  0
 17 18  1  0  0  0  0
 18 19  1  0  0  0  0
 19 20  4  0  0  0  0
 20 21  1  0  0  0  0
 20 22  4  0  0  0  0
 22 23  4  0  0  0  0
 23 24  4  0  0  0  0
 24 25  1  0  0  0  0
 24 26  4  0  0  0  0
 19 26  4  0  0  0  0
 26 27  1  0  0  0  0
 18 28  2  0  0  0  0
 28 29  1  0  0  0  0
 15 29  1  0  0  0  0
 29 30  2  0  0  0  0
 14 31  1  0  0  0  0
 31 32  1  0  0  0  0
 32 33  1  0  0  0  0
 33 34  1  0  0  0  0
 34 35  1  1  0  0  0
 34 36  1  0  0  0  0
 36 37  2  0  0  0  0
 36 38  1  0  0  0  0
  5 38  1  0  0  0  0
M  END
>  <CdId>
358422

>  <Mol Weight>
536.012

>  <Formula>
C30H28ClF2N3O2

>  <cmpd_chemblid>
CHEMBL4113165

>  <std_type>
Ki

>  <std_value>
98.92

>  <std_unit>
nM

>  <target_id>
CHEMBL2016

>  <target_name>
Coagulation factor IX

>  <organism>
Homo sapiens

>  <target_type>
SINGLE PROTEIN

$$$$

  Mrv0541 08052111042D          

 32 36  0  0  1  0            999 V2000
   -4.2122   -4.3298    0.0000 C   0  0  0  0  0  0  0  0  0  0  0  0
   -3.6188   -3.7568    0.0000 C   0  0  0  0  0  0  0  0  0  0  0  0
   -3.7336   -2.9398    0.0000 N   0  0  0  0  0  0  0  0  0  0  0  0
   -2.9921   -2.5781    0.0000 C   0  0  0  0  0  0  0  0  0  0  0  0
   -2.4190   -3.1716    0.0000 N   0  0  0  0  0  0  0  0  0  0  0  0
   -1.6020   -3.0568    0.0000 C   0  0  0  0  0  0  0  0  0  0  0  0
   -1.2930   -2.2918    0.0000 C   0  0  0  0  0  0  0  0  0  0  0  0
   -0.4760   -2.1770    0.0000 C   0  0  0  0  0  0  0  0  0  0  0  0
   -0.1669   -1.4121    0.0000 Cl  0  0  0  0  0  0  0  0  0  0  0  0
    0.0319   -2.8271    0.0000 C   0  0  0  0  0  0  0  0  0  0  0  0
    0.8489   -2.7123    0.0000 C   0  0  0  0  0  0  0  0  0  0  0  0
    1.3568   -3.3624    0.0000 O   0  0  0  0  0  0  0  0  0  0  0  0
    1.1580   -1.9474    0.0000 N   0  0  0  0  0  0  0  0  0  0  0  0
    1.9749   -1.8326    0.0000 C   0  0  2  0  0  0  0  0  0  0  0  0
    1.9461   -2.6571    0.0000 C   0  0  0  0  0  0  0  0  0  0  0  0
    1.7200   -1.0479    0.0000 C   0  0  0  0  0  0  0  0  0  0  0  0
    2.2720   -0.4349    0.0000 C   0  0  0  0  0  0  0  0  0  0  0  0
    3.0790   -0.6064    0.0000 C   0  0  0  0  0  0  0  0  0  0  0  0
    3.7464   -0.1215    0.0000 N   0  0  0  0  0  0  0  0  0  0  0  0
    4.4139   -0.6064    0.0000 C   0  0  0  0  0  0  0  0  0  0  0  0
    5.2208   -0.4349    0.0000 C   0  0  0  0  0  0  0  0  0  0  0  0
    5.4758    0.3498    0.0000 C   0  0  0  0  0  0  0  0  0  0  0  0
    5.7729   -1.0479    0.0000 C   0  0  0  0  0  0  0  0  0  0  0  0
    5.5179   -1.8326    0.0000 C   0  0  0  0  0  0  0  0  0  0  0  0
    4.7110   -2.0041    0.0000 C   0  0  0  0  0  0  0  0  0  0  0  0
    4.1589   -1.3910    0.0000 C   0  0  0  0  0  0  0  0  0  0  0  0
    3.3339   -1.3910    0.0000 C   0  0  0  0  0  0  0  0  0  0  0  0
    2.7819   -2.0041    0.0000 C   0  0  0  0  0  0  0  0  0  0  0  0
   -0.2771   -3.5921    0.0000 C   0  0  0  0  0  0  0  0  0  0  0  0
    0.2308   -4.2422    0.0000 Cl  0  0  0  0  0  0  0  0  0  0  0  0
   -1.0941   -3.7069    0.0000 C   0  0  0  0  0  0  0  0  0  0  0  0
   -2.8063   -3.9000    0.0000 N   0  0  0  0  0  0  0  0  0  0  0  0
  1  2  1  0  0  0  0
  2  3  4  0  0  0  0
  3  4  4  0  0  0  0
  4  5  4  0  0  0  0
  5  6  1  0  0  0  0
  6  7  4  0  0  0  0
  7  8  4  0  0  0  0
  8  9  1  0  0  0  0
  8 10  4  0  0  0  0
 10 11  1  0  0  0  0
 11 12  2  0  0  0  0
 11 13  1  0  0  0  0
 14 13  1  6  0  0  0
 14 15  1  1  0  0  0
 14 16  1  0  0  0  0
 16 17  1  0  0  0  0
 17 18  1  0  0  0  0
 18 19  4  0  0  0  0
 19 20  4  0  0  0  0
 20 21  4  0  0  0  0
 21 22  1  0  0  0  0
 21 23  4  0  0  0  0
 23 24  4  0  0  0  0
 24 25  4  0  0  0  0
 25 26  4  0  0  0  0
 20 26  4  0  0  0  0
 26 27  4  0  0  0  0
 18 27  4  0  0  0  0
 27 28  1  0  0  0  0
 14 28  1  0  0  0  0
 10 29  4  0  0  0  0
 29 30  1  0  0  0  0
 29 31  4  0  0  0  0
  6 31  4  0  0  0  0
  5 32  4  0  0  0  0
  2 32  4  0  0  0  0
M  STY  1   1 DAT
M  SAL   1  1  19
M  SDT   1 MRV_IMPLICIT_H                                        
M  SDD   1     0.0000    0.0000    DR    ALL  0       0  
M  SED   1 IMPL_H1
M  END
>  <CdId>
358423

>  <Mol Weight>
468.378

>  <Formula>
C24H23Cl2N5O

>  <cmpd_chemblid>
CHEMBL3628833

>  <std_type>
Ki

>  <std_value>
267.6

>  <std_unit>
nM

>  <target_id>
CHEMBL2016

>  <target_name>
Coagulation factor IX

>  <organism>
Homo sapiens

>  <target_type>
SINGLE PROTEIN

$$$$

  Mrv0541 08052111042D          

 40 44  0  0  1  0            999 V2000
    3.9849    3.9849    0.0000 C   0  0  0  0  0  0  0  0  0  0  0  0
    4.3974    3.2704    0.0000 C   0  0  2  0  0  0  0  0  0  0  0  0
    5.2224    3.2704    0.0000 C   0  0  0  0  0  0  0  0  0  0  0  0
    5.6349    2.5559    0.0000 C   0  0  0  0  0  0  0  0  0  0  0  0
    6.4599    2.5559    0.0000 C   0  0  0  0  0  0  0  0  0  0  0  0
    6.8724    1.8414    0.0000 C   0  0  2  0  0  0  0  0  0  0  0  0
    7.6974    1.8414    0.0000 N   0  0  0  0  0  0  0  0  0  0  0  0
    8.1099    2.5559    0.0000 C   0  0  0  0  0  0  0  0  0  0  0  0
    8.9349    2.5559    0.0000 C   0  0  0  0  0  0  0  0  0  0  0  0
    9.3474    1.8414    0.0000 C   0  0  0  0  0  0  0  0  0  0  0  0
   10.1724    1.8414    0.0000 C   0  0  0  0  0  0  0  0  0  0  0  0
   10.5849    2.5559    0.0000 C   0  0  0  0  0  0  0  0  0  0  0  0
   10.1724    3.2704    0.0000 C   0  0  0  0  0  0  0  0  0  0  0  0
    9.7599    3.9849    0.0000 F   0  0  0  0  0  0  0  0  0  0  0  0
    9.4579    2.8579    0.0000 F   0  0  0  0  0  0  0  0  0  0  0  0
   10.8868    3.6829    0.0000 F   0  0  0  0  0  0  0  0  0  0  0  0
   11.4099    2.5559    0.0000 C   0  0  0  0  0  0  0  0  0  0  0  0
   11.8224    1.8414    0.0000 C   0  0  0  0  0  0  0  0  0  0  0  0
   11.4099    1.1270    0.0000 C   0  0  0  0  0  0  0  0  0  0  0  0
   11.8224    0.4125    0.0000 Cl  0  0  0  0  0  0  0  0  0  0  0  0
   10.5849    1.1270    0.0000 C   0  0  0  0  0  0  0  0  0  0  0  0
   10.1724    0.4125    0.0000 F   0  0  0  0  0  0  0  0  0  0  0  0
    8.9349    1.1270    0.0000 C   0  0  0  0  0  0  0  0  0  0  0  0
    8.1099    1.1270    0.0000 C   0  0  0  0  0  0  0  0  0  0  0  0
    7.6974    0.4125    0.0000 O   0  0  0  0  0  0  0  0  0  0  0  0
    6.4599    1.1270    0.0000 C   0  0  0  0  0  0  0  0  0  0  0  0
    5.6349    1.1270    0.0000 C   0  0  0  0  0  0  0  0  0  0  0  0
    5.2224    0.4125    0.0000 C   0  0  0  0  0  0  0  0  0  0  0  0
    5.6349   -0.3020    0.0000 C   0  0  0  0  0  0  0  0  0  0  0  0
    6.4599   -0.3020    0.0000 C   0  0  0  0  0  0  0  0  0  0  0  0
    6.8724    0.4125    0.0000 N   0  0  0  0  0  0  0  0  0  0  0  0
    4.3974    0.4125    0.0000 C   0  0  0  0  0  0  0  0  0  0  0  0
    3.9849   -0.3020    0.0000 C   0  0  0  0  0  0  0  0  0  0  0  0
    3.1599   -0.3020    0.0000 C   0  0  0  0  0  0  0  0  0  0  0  0
    2.7474    0.4125    0.0000 C   0  0  0  0  0  0  0  0  0  0  0  0
    3.1599    1.1270    0.0000 C   0  0  0  0  0  0  0  0  0  0  0  0
    3.9849    1.1270    0.0000 C   0  0  0  0  0  0  0  0  0  0  0  0
    4.3974    1.8414    0.0000 N   0  0  0  0  0  0  0  0  0  0  0  0
    3.9849    2.5559    0.0000 C   0  0  0  0  0  0  0  0  0  0  0  0
    3.1599    2.5559    0.0000 O   0  0  0  0  0  0  0  0  0  0  0  0
  2  1  1  6  0  0  0
  2  3  1  0  0  0  0
  3  4  1  0  0  0  0
  4  5  1  0  0  0  0
  5  6  1  0  0  0  0
  6  7  1  6  0  0  0
  7  8  1  0  0  0  0
  8  9  1  0  0  0  0
  9 10  1  0  0  0  0
 10 11  1  0  0  0  0
 11 12  4  0  0  0  0
 12 13  1  0  0  0  0
 13 14  1  0  0  0  0
 13 15  1  0  0  0  0
 13 16  1  0  0  0  0
 12 17  4  0  0  0  0
 17 18  4  0  0  0  0
 18 19  4  0  0  0  0
 19 20  1  0  0  0  0
 19 21  4  0  0  0  0
 11 21  4  0  0  0  0
 21 22  1  0  0  0  0
 10 23  2  0  0  0  0
 23 24  1  0  0  0  0
  7 24  1  0  0  0  0
 24 25  2  0  0  0  0
  6 26  1  0  0  0  0
 26 27  4  0  0  0  0
 27 28  4  0  0  0  0
 28 29  4  0  0  0  0
 29 30  4  0  0  0  0
 30 31  4  0  0  0  0
 26 31  4  0  0  0  0
 28 32  1  0  0  0  0
 32 33  4  0  0  0  0
 33 34  4  0  0  0  0
 34 35  4  0  0  0  0
 35 36  4  0  0  0  0
 36 37  4  0  0  0  0
 32 37  4  0  0  0  0
 37 38  1  0  0  0  0
 38 39  1  0  0  0  0
  2 39  1  0  0  0  0
 39 40  2  0  0  0  0
M  END
>  <CdId>
358424

>  <Mol Weight>
571.993

>  <Formula>
C30H26ClF4N3O2

>  <cmpd_chemblid>
CHEMBL4115178

>  <std_type>
Ki

>  <std_value>
2.98

>  <std_unit>
nM

>  <target_id>
CHEMBL2016

>  <target_name>
Coagulation factor IX

>  <organism>
Homo sapiens

>  <target_type>
SINGLE PROTEIN

$$$$

  Mrv0541 08052111042D          

 40 45  0  0  1  0            999 V2000
    4.7674    0.7556    0.0000 C   0  0  0  0  0  0  0  0  0  0  0  0
    3.9604    0.5840    0.0000 C   0  0  0  0  0  0  0  0  0  0  0  0
    3.7054   -0.2006    0.0000 C   0  0  0  0  0  0  0  0  0  0  0  0
    2.8985   -0.3721    0.0000 C   0  0  0  0  0  0  0  0  0  0  0  0
    2.3464    0.2410    0.0000 C   0  0  0  0  0  0  0  0  0  0  0  0
    2.6014    1.0256    0.0000 C   0  0  0  0  0  0  0  0  0  0  0  0
    3.4084    1.1971    0.0000 C   0  0  0  0  0  0  0  0  0  0  0  0
    1.9339    1.5105    0.0000 C   0  0  0  0  0  0  0  0  0  0  0  0
    1.9339    2.3355    0.0000 C   0  0  0  0  0  0  0  0  0  0  0  0
    1.2195    2.7480    0.0000 O   0  0  0  0  0  0  0  0  0  0  0  0
    2.6484    2.7480    0.0000 O   0  0  0  0  0  0  0  0  0  0  0  0
    1.2665    1.0256    0.0000 C   0  0  0  0  0  0  0  0  0  0  0  0
    1.5214    0.2410    0.0000 N   0  0  0  0  0  0  0  0  0  0  0  0
    0.9694   -0.3721    0.0000 C   0  0  0  0  0  0  0  0  0  0  0  0
    0.1624   -0.2006    0.0000 C   0  0  1  0  0  0  0  0  0  0  0  0
    0.1336   -1.0251    0.0000 N   0  0  0  0  0  0  0  0  0  0  0  0
    0.8333   -1.4623    0.0000 C   0  0  0  0  0  0  0  0  0  0  0  0
    1.5617   -1.0750    0.0000 O   0  0  0  0  0  0  0  0  0  0  0  0
    0.8045   -2.2868    0.0000 C   0  0  0  0  0  0  0  0  0  0  0  0
    1.5041   -2.7240    0.0000 C   0  0  0  0  0  0  0  0  0  0  0  0
    2.2326   -2.3366    0.0000 Cl  0  0  0  0  0  0  0  0  0  0  0  0
    1.4753   -3.5485    0.0000 C   0  0  0  0  0  0  0  0  0  0  0  0
    0.7469   -3.9358    0.0000 C   0  0  0  0  0  0  0  0  0  0  0  0
    0.7181   -4.7603    0.0000 N   0  0  0  0  0  0  0  0  0  0  0  0
    1.3682   -5.2682    0.0000 C   0  0  0  0  0  0  0  0  0  0  0  0
    1.0861   -6.0434    0.0000 N   0  0  0  0  0  0  0  0  0  0  0  0
    0.2616   -6.0146    0.0000 C   0  0  0  0  0  0  0  0  0  0  0  0
   -0.2464   -6.6647    0.0000 C   0  0  0  0  0  0  0  0  0  0  0  0
    0.0342   -5.2216    0.0000 N   0  0  0  0  0  0  0  0  0  0  0  0
    0.0473   -3.4986    0.0000 C   0  0  0  0  0  0  0  0  0  0  0  0
    0.0761   -2.6741    0.0000 C   0  0  0  0  0  0  0  0  0  0  0  0
   -0.6236   -2.2369    0.0000 Cl  0  0  0  0  0  0  0  0  0  0  0  0
   -0.6545   -0.3154    0.0000 C   0  0  0  0  0  0  0  0  0  0  0  0
   -0.9636   -1.0803    0.0000 C   0  0  0  0  0  0  0  0  0  0  0  0
   -1.7806   -1.1952    0.0000 C   0  0  0  0  0  0  0  0  0  0  0  0
   -2.2885   -0.5450    0.0000 C   0  0  0  0  0  0  0  0  0  0  0  0
   -1.9794    0.2199    0.0000 C   0  0  0  0  0  0  0  0  0  0  0  0
   -1.1625    0.3347    0.0000 C   0  0  0  0  0  0  0  0  0  0  0  0
   -0.0925    0.5840    0.0000 C   0  0  0  0  0  0  0  0  0  0  0  0
    0.4595    1.1971    0.0000 C   0  0  0  0  0  0  0  0  0  0  0  0
  1  2  1  0  0  0  0
  2  3  4  0  0  0  0
  3  4  4  0  0  0  0
  4  5  4  0  0  0  0
  5  6  4  0  0  0  0
  6  7  4  0  0  0  0
  2  7  4  0  0  0  0
  6  8  4  0  0  0  0
  8  9  1  0  0  0  0
  9 10  2  0  0  0  0
  9 11  1  0  0  0  0
  8 12  4  0  0  0  0
 12 13  4  0  0  0  0
  5 13  4  0  0  0  0
 13 14  1  0  0  0  0
 14 15  1  0  0  0  0
 15 16  1  6  0  0  0
 16 17  1  0  0  0  0
 17 18  2  0  0  0  0
 17 19  1  0  0  0  0
 19 20  4  0  0  0  0
 20 21  1  0  0  0  0
 20 22  4  0  0  0  0
 22 23  4  0  0  0  0
 23 24  1  0  0  0  0
 24 25  4  0  0  0  0
 25 26  4  0  0  0  0
 26 27  4  0  0  0  0
 27 28  1  0  0  0  0
 27 29  4  0  0  0  0
 24 29  4  0  0  0  0
 23 30  4  0  0  0  0
 30 31  4  0  0  0  0
 19 31  4  0  0  0  0
 31 32  1  0  0  0  0
 15 33  1  1  0  0  0
 33 34  4  0  0  0  0
 34 35  4  0  0  0  0
 35 36  4  0  0  0  0
 36 37  4  0  0  0  0
 37 38  4  0  0  0  0
 33 38  4  0  0  0  0
 15 39  1  0  0  0  0
 39 40  1  0  0  0  0
 12 40  1  0  0  0  0
M  END
>  <CdId>
358426

>  <Mol Weight>
574.457

>  <Formula>
C30H25Cl2N5O3

>  <cmpd_chemblid>
CHEMBL3629114

>  <std_type>
Ki

>  <std_value>
0.6

>  <std_unit>
nM

>  <target_id>
CHEMBL2016

>  <target_name>
Coagulation factor IX

>  <organism>
Homo sapiens

>  <target_type>
SINGLE PROTEIN

$$$$

  Mrv0541 08052111042D          

 43 47  0  0  1  0            999 V2000
    8.6329   -2.2539    0.0000 C   0  0  0  0  0  0  0  0  0  0  0  0
    8.2204   -1.5395    0.0000 O   0  0  0  0  0  0  0  0  0  0  0  0
    7.3954   -1.5395    0.0000 C   0  0  0  0  0  0  0  0  0  0  0  0
    6.9829   -2.2539    0.0000 O   0  0  0  0  0  0  0  0  0  0  0  0
    6.9829   -0.8250    0.0000 N   0  0  0  0  0  0  0  0  0  0  0  0
    6.1579   -0.8250    0.0000 C   0  0  0  0  0  0  0  0  0  0  0  0
    5.7454   -0.1105    0.0000 C   0  0  0  0  0  0  0  0  0  0  0  0
    4.9204   -0.1105    0.0000 C   0  0  0  0  0  0  0  0  0  0  0  0
    4.5079   -0.8250    0.0000 C   0  0  0  0  0  0  0  0  0  0  0  0
    4.9204   -1.5395    0.0000 C   0  0  0  0  0  0  0  0  0  0  0  0
    5.7454   -1.5395    0.0000 C   0  0  0  0  0  0  0  0  0  0  0  0
    4.5079   -2.2539    0.0000 N   0  0  0  0  0  0  0  0  0  0  0  0
    4.9204   -2.9684    0.0000 C   0  0  0  0  0  0  0  0  0  0  0  0
    5.7454   -2.9684    0.0000 O   0  0  0  0  0  0  0  0  0  0  0  0
    4.5079   -3.6829    0.0000 C   0  0  2  0  0  0  0  0  0  0  0  0
    4.9204   -4.3974    0.0000 C   0  0  0  0  0  0  0  0  0  0  0  0
    3.6829   -3.6829    0.0000 C   0  0  0  0  0  0  0  0  0  0  0  0
    3.2704   -4.3974    0.0000 O   0  0  0  0  0  0  0  0  0  0  0  0
    3.2704   -2.9684    0.0000 C   0  0  0  0  0  0  0  0  0  0  0  0
    2.4454   -2.9684    0.0000 C   0  0  0  0  0  0  0  0  0  0  0  0
    2.0329   -2.2539    0.0000 C   0  0  2  0  0  0  0  0  0  0  0  0
    1.2079   -2.2539    0.0000 N   0  0  0  0  0  0  0  0  0  0  0  0
    0.7954   -2.9684    0.0000 C   0  0  0  0  0  0  0  0  0  0  0  0
   -0.0296   -2.9684    0.0000 C   0  0  0  0  0  0  0  0  0  0  0  0
   -0.4421   -2.2539    0.0000 C   0  0  0  0  0  0  0  0  0  0  0  0
   -1.2671   -2.2539    0.0000 C   0  0  0  0  0  0  0  0  0  0  0  0
   -1.6796   -2.9684    0.0000 C   0  0  0  0  0  0  0  0  0  0  0  0
   -1.2671   -3.6829    0.0000 F   0  0  0  0  0  0  0  0  0  0  0  0
   -2.5046   -2.9684    0.0000 C   0  0  0  0  0  0  0  0  0  0  0  0
   -2.9171   -2.2539    0.0000 C   0  0  0  0  0  0  0  0  0  0  0  0
   -2.5046   -1.5395    0.0000 C   0  0  0  0  0  0  0  0  0  0  0  0
   -2.9171   -0.8250    0.0000 Cl  0  0  0  0  0  0  0  0  0  0  0  0
   -1.6796   -1.5395    0.0000 C   0  0  0  0  0  0  0  0  0  0  0  0
   -1.2671   -0.8250    0.0000 F   0  0  0  0  0  0  0  0  0  0  0  0
   -0.0296   -1.5395    0.0000 C   0  0  0  0  0  0  0  0  0  0  0  0
    0.7954   -1.5395    0.0000 C   0  0  0  0  0  0  0  0  0  0  0  0
    1.2079   -0.8250    0.0000 O   0  0  0  0  0  0  0  0  0  0  0  0
    2.4454   -1.5395    0.0000 C   0  0  0  0  0  0  0  0  0  0  0  0
    3.2704   -1.5395    0.0000 C   0  0  0  0  0  0  0  0  0  0  0  0
    3.6829   -0.8250    0.0000 C   0  0  0  0  0  0  0  0  0  0  0  0
    3.2704   -0.1105    0.0000 C   0  0  0  0  0  0  0  0  0  0  0  0
    2.4454   -0.1105    0.0000 C   0  0  0  0  0  0  0  0  0  0  0  0
    2.0329   -0.8250    0.0000 N   0  0  0  0  0  0  0  0  0  0  0  0
  1  2  1  0  0  0  0
  2  3  1  0  0  0  0
  3  4  2  0  0  0  0
  3  5  1  0  0  0  0
  5  6  1  0  0  0  0
  6  7  4  0  0  0  0
  7  8  4  0  0  0  0
  8  9  4  0  0  0  0
  9 10  4  0  0  0  0
 10 11  4  0  0  0  0
  6 11  4  0  0  0  0
 10 12  1  0  0  0  0
 12 13  1  0  0  0  0
 13 14  2  0  0  0  0
 13 15  1  0  0  0  0
 15 16  1  6  0  0  0
 15 17  1  0  0  0  0
 17 18  2  0  0  0  0
 17 19  1  0  0  0  0
 19 20  1  0  0  0  0
 20 21  1  0  0  0  0
 21 22  1  6  0  0  0
 22 23  1  0  0  0  0
 23 24  1  0  0  0  0
 24 25  1  0  0  0  0
 25 26  1  0  0  0  0
 26 27  4  0  0  0  0
 27 28  1  0  0  0  0
 27 29  4  0  0  0  0
 29 30  4  0  0  0  0
 30 31  4  0  0  0  0
 31 32  1  0  0  0  0
 31 33  4  0  0  0  0
 26 33  4  0  0  0  0
 33 34  1  0  0  0  0
 25 35  2  0  0  0  0
 35 36  1  0  0  0  0
 22 36  1  0  0  0  0
 36 37  2  0  0  0  0
 21 38  1  0  0  0  0
 38 39  4  0  0  0  0
 39 40  4  0  0  0  0
  9 40  1  0  0  0  0
 40 41  4  0  0  0  0
 41 42  4  0  0  0  0
 42 43  4  0  0  0  0
 38 43  4  0  0  0  0
M  END
>  <CdId>
358427

>  <Mol Weight>
609.02

>  <Formula>
C31H27ClF2N4O5

>  <cmpd_chemblid>
CHEMBL4115583

>  <std_type>
Ki

>  <std_value>
45.26

>  <std_unit>
nM

>  <target_id>
CHEMBL2016

>  <target_name>
Coagulation factor IX

>  <organism>
Homo sapiens

>  <target_type>
SINGLE PROTEIN

$$$$

  Mrv0541 08052111042D          

 44 49  0  0  1  0            999 V2000
    3.9849    3.9849    0.0000 C   0  0  0  0  0  0  0  0  0  0  0  0
    4.3974    3.2704    0.0000 C   0  0  2  0  0  0  0  0  0  0  0  0
    5.2224    3.2704    0.0000 C   0  0  0  0  0  0  0  0  0  0  0  0
    5.6349    2.5559    0.0000 C   0  0  0  0  0  0  0  0  0  0  0  0
    6.4599    2.5559    0.0000 C   0  0  0  0  0  0  0  0  0  0  0  0
    6.8724    1.8414    0.0000 C   0  0  2  0  0  0  0  0  0  0  0  0
    7.6974    1.8414    0.0000 N   0  0  0  0  0  0  0  0  0  0  0  0
    8.1099    2.5559    0.0000 C   0  0  0  0  0  0  0  0  0  0  0  0
    8.9349    2.5559    0.0000 C   0  0  0  0  0  0  0  0  0  0  0  0
    9.3474    1.8414    0.0000 C   0  0  0  0  0  0  0  0  0  0  0  0
   10.1724    1.8414    0.0000 C   0  0  0  0  0  0  0  0  0  0  0  0
   10.5849    2.5559    0.0000 C   0  0  0  0  0  0  0  0  0  0  0  0
   10.1724    3.2704    0.0000 F   0  0  0  0  0  0  0  0  0  0  0  0
   11.4099    2.5559    0.0000 C   0  0  0  0  0  0  0  0  0  0  0  0
   11.8224    1.8414    0.0000 C   0  0  0  0  0  0  0  0  0  0  0  0
   11.4099    1.1270    0.0000 C   0  0  0  0  0  0  0  0  0  0  0  0
   11.8224    0.4125    0.0000 Cl  0  0  0  0  0  0  0  0  0  0  0  0
   10.5849    1.1270    0.0000 C   0  0  0  0  0  0  0  0  0  0  0  0
   10.1724    0.4125    0.0000 F   0  0  0  0  0  0  0  0  0  0  0  0
    8.9349    1.1270    0.0000 C   0  0  0  0  0  0  0  0  0  0  0  0
    8.1099    1.1270    0.0000 C   0  0  0  0  0  0  0  0  0  0  0  0
    7.6974    0.4125    0.0000 O   0  0  0  0  0  0  0  0  0  0  0  0
    6.4599    1.1270    0.0000 C   0  0  0  0  0  0  0  0  0  0  0  0
    5.6349    1.1270    0.0000 C   0  0  0  0  0  0  0  0  0  0  0  0
    5.2224    0.4125    0.0000 C   0  0  0  0  0  0  0  0  0  0  0  0
    5.6349   -0.3020    0.0000 C   0  0  0  0  0  0  0  0  0  0  0  0
    6.4599   -0.3020    0.0000 C   0  0  0  0  0  0  0  0  0  0  0  0
    6.8724    0.4125    0.0000 N   0  0  0  0  0  0  0  0  0  0  0  0
    4.3974    0.4125    0.0000 C   0  0  0  0  0  0  0  0  0  0  0  0
    3.9849   -0.3020    0.0000 C   0  0  0  0  0  0  0  0  0  0  0  0
    3.1599   -0.3020    0.0000 C   0  0  0  0  0  0  0  0  0  0  0  0
    2.7474    0.4125    0.0000 C   0  0  0  0  0  0  0  0  0  0  0  0
    1.9224    0.4125    0.0000 N   0  0  0  0  0  0  0  0  0  0  0  0
    1.5099    1.1270    0.0000 C   0  0  0  0  0  0  0  0  0  0  0  0
    0.6849    1.1270    0.0000 C   0  0  0  0  0  0  0  0  0  0  0  0
    0.2724    1.8414    0.0000 N   0  0  0  0  0  0  0  0  0  0  0  0
    0.6849    2.5559    0.0000 C   0  0  0  0  0  0  0  0  0  0  0  0
    1.5099    2.5559    0.0000 C   0  0  0  0  0  0  0  0  0  0  0  0
    1.9224    1.8414    0.0000 N   0  0  0  0  0  0  0  0  0  0  0  0
    3.1599    1.1270    0.0000 C   0  0  0  0  0  0  0  0  0  0  0  0
    3.9849    1.1270    0.0000 C   0  0  0  0  0  0  0  0  0  0  0  0
    4.3974    1.8414    0.0000 N   0  0  0  0  0  0  0  0  0  0  0  0
    3.9849    2.5559    0.0000 C   0  0  0  0  0  0  0  0  0  0  0  0
    3.1599    2.5559    0.0000 O   0  0  0  0  0  0  0  0  0  0  0  0
  2  1  1  6  0  0  0
  2  3  1  0  0  0  0
  3  4  1  0  0  0  0
  4  5  1  0  0  0  0
  5  6  1  0  0  0  0
  6  7  1  6  0  0  0
  7  8  1  0  0  0  0
  8  9  1  0  0  0  0
  9 10  1  0  0  0  0
 10 11  1  0  0  0  0
 11 12  4  0  0  0  0
 12 13  1  0  0  0  0
 12 14  4  0  0  0  0
 14 15  4  0  0  0  0
 15 16  4  0  0  0  0
 16 17  1  0  0  0  0
 16 18  4  0  0  0  0
 11 18  4  0  0  0  0
 18 19  1  0  0  0  0
 10 20  2  0  0  0  0
 20 21  1  0  0  0  0
  7 21  1  0  0  0  0
 21 22  2  0  0  0  0
  6 23  1  0  0  0  0
 23 24  4  0  0  0  0
 24 25  4  0  0  0  0
 25 26  4  0  0  0  0
 26 27  4  0  0  0  0
 27 28  4  0  0  0  0
 23 28  4  0  0  0  0
 25 29  1  0  0  0  0
 29 30  4  0  0  0  0
 30 31  4  0  0  0  0
 31 32  4  0  0  0  0
 32 33  1  0  0  0  0
 33 34  1  0  0  0  0
 34 35  4  0  0  0  0
 35 36  4  0  0  0  0
 36 37  4  0  0  0  0
 37 38  4  0  0  0  0
 38 39  4  0  0  0  0
 34 39  4  0  0  0  0
 32 40  4  0  0  0  0
 40 41  4  0  0  0  0
 29 41  4  0  0  0  0
 41 42  1  0  0  0  0
 42 43  1  0  0  0  0
  2 43  1  0  0  0  0
 43 44  2  0  0  0  0
M  END
>  <CdId>
358428

>  <Mol Weight>
615.072

>  <Formula>
C33H29ClF2N6O2

>  <cmpd_chemblid>
CHEMBL4107398

>  <std_type>
Ki

>  <std_value>
1.4

>  <std_unit>
nM

>  <target_id>
CHEMBL2016

>  <target_name>
Coagulation factor IX

>  <organism>
Homo sapiens

>  <target_type>
SINGLE PROTEIN

$$$$

  Mrv0541 08052111042D          

 37 41  0  0  1  0            999 V2000
    2.3939    0.1096    0.0000 C   0  0  0  0  0  0  0  0  0  0  0  0
    2.4332    0.9337    0.0000 C   0  0  0  0  0  0  0  0  0  0  0  0
    3.1311    1.3737    0.0000 N   0  0  0  0  0  0  0  0  0  0  0  0
    2.9282    2.1734    0.0000 C   0  0  0  0  0  0  0  0  0  0  0  0
    2.1050    2.2275    0.0000 N   0  0  0  0  0  0  0  0  0  0  0  0
    1.6464    1.5417    0.0000 C   0  0  0  0  0  0  0  0  0  0  0  0
    0.8232    1.5958    0.0000 C   0  0  0  0  0  0  0  0  0  0  0  0
    0.3647    0.9100    0.0000 C   0  0  0  0  0  0  0  0  0  0  0  0
   -0.4585    0.9641    0.0000 C   0  0  0  0  0  0  0  0  0  0  0  0
   -0.8232    1.7042    0.0000 C   0  0  0  0  0  0  0  0  0  0  0  0
   -0.3647    2.3900    0.0000 C   0  0  0  0  0  0  0  0  0  0  0  0
    0.4585    2.3359    0.0000 C   0  0  0  0  0  0  0  0  0  0  0  0
    0.9170    3.0217    0.0000 N   0  0  0  0  0  0  0  0  0  0  0  0
    0.5523    3.7617    0.0000 C   0  0  0  0  0  0  0  0  0  0  0  0
   -0.2709    3.8159    0.0000 O   0  0  0  0  0  0  0  0  0  0  0  0
    1.0108    4.4476    0.0000 C   0  0  2  0  0  0  0  0  0  0  0  0
    0.6461    5.1876    0.0000 C   0  0  0  0  0  0  0  0  0  0  0  0
    1.8340    4.3934    0.0000 C   0  0  0  0  0  0  0  0  0  0  0  0
    2.1988    3.6534    0.0000 C   0  0  0  0  0  0  0  0  0  0  0  0
    3.0220    3.5992    0.0000 C   0  0  0  0  0  0  0  0  0  0  0  0
    3.3867    2.8592    0.0000 C   0  0  2  0  0  0  0  0  0  0  0  0
    4.2099    2.8051    0.0000 N   0  0  0  0  0  0  0  0  0  0  0  0
    4.6684    3.4909    0.0000 C   0  0  0  0  0  0  0  0  0  0  0  0
    5.4916    3.4368    0.0000 C   0  0  0  0  0  0  0  0  0  0  0  0
    5.8563    2.6968    0.0000 C   0  0  0  0  0  0  0  0  0  0  0  0
    6.6796    2.6426    0.0000 C   0  0  0  0  0  0  0  0  0  0  0  0
    7.1381    3.3285    0.0000 C   0  0  0  0  0  0  0  0  0  0  0  0
    6.7734    4.0685    0.0000 F   0  0  0  0  0  0  0  0  0  0  0  0
    7.9613    3.2743    0.0000 C   0  0  0  0  0  0  0  0  0  0  0  0
    8.3260    2.5343    0.0000 C   0  0  0  0  0  0  0  0  0  0  0  0
    7.8675    1.8485    0.0000 C   0  0  0  0  0  0  0  0  0  0  0  0
    8.2322    1.1084    0.0000 Cl  0  0  0  0  0  0  0  0  0  0  0  0
    7.0443    1.9026    0.0000 C   0  0  0  0  0  0  0  0  0  0  0  0
    6.5858    1.2168    0.0000 F   0  0  0  0  0  0  0  0  0  0  0  0
    5.3978    2.0109    0.0000 C   0  0  0  0  0  0  0  0  0  0  0  0
    4.5746    2.0651    0.0000 C   0  0  0  0  0  0  0  0  0  0  0  0
    4.1161    1.3792    0.0000 O   0  0  0  0  0  0  0  0  0  0  0  0
  1  2  1  0  0  0  0
  2  3  4  0  0  0  0
  3  4  4  0  0  0  0
  4  5  4  0  0  0  0
  5  6  4  0  0  0  0
  2  6  4  0  0  0  0
  6  7  1  0  0  0  0
  7  8  4  0  0  0  0
  8  9  4  0  0  0  0
  9 10  4  0  0  0  0
 10 11  4  0  0  0  0
 11 12  4  0  0  0  0
  7 12  4  0  0  0  0
 12 13  1  0  0  0  0
 13 14  1  0  0  0  0
 14 15  2  0  0  0  0
 14 16  1  0  0  0  0
 16 17  1  6  0  0  0
 16 18  1  0  0  0  0
 18 19  1  0  0  0  0
 19 20  1  0  0  0  0
 20 21  1  0  0  0  0
  4 21  1  0  0  0  0
 21 22  1  6  0  0  0
 22 23  1  0  0  0  0
 23 24  1  0  0  0  0
 24 25  1  0  0  0  0
 25 26  1  0  0  0  0
 26 27  4  0  0  0  0
 27 28  1  0  0  0  0
 27 29  4  0  0  0  0
 29 30  4  0  0  0  0
 30 31  4  0  0  0  0
 31 32  1  0  0  0  0
 31 33  4  0  0  0  0
 26 33  4  0  0  0  0
 33 34  1  0  0  0  0
 25 35  2  0  0  0  0
 35 36  1  0  0  0  0
 22 36  1  0  0  0  0
 36 37  2  0  0  0  0
M  STY  1   1 DAT
M  SAL   1  1   3
M  SDT   1 MRV_IMPLICIT_H                                        
M  SDD   1     0.0000    0.0000    DR    ALL  0       0  
M  SED   1 IMPL_H1
M  END
>  <CdId>
358429

>  <Mol Weight>
524.989

>  <Formula>
C28H27ClF2N4O2

>  <cmpd_chemblid>
CHEMBL4110002

>  <std_type>
Ki

>  <std_value>
21.72

>  <std_unit>
nM

>  <target_id>
CHEMBL2016

>  <target_name>
Coagulation factor IX

>  <organism>
Homo sapiens

>  <target_type>
SINGLE PROTEIN

$$$$

  Mrv0541 08052111042D          

 43 47  0  0  1  0            999 V2000
    3.9849    3.9849    0.0000 C   0  0  0  0  0  0  0  0  0  0  0  0
    4.3974    3.2704    0.0000 C   0  0  2  0  0  0  0  0  0  0  0  0
    5.2224    3.2704    0.0000 C   0  0  0  0  0  0  0  0  0  0  0  0
    5.6349    2.5559    0.0000 C   0  0  0  0  0  0  0  0  0  0  0  0
    6.4599    2.5559    0.0000 C   0  0  0  0  0  0  0  0  0  0  0  0
    6.8724    1.8414    0.0000 C   0  0  2  0  0  0  0  0  0  0  0  0
    7.6974    1.8414    0.0000 N   0  0  0  0  0  0  0  0  0  0  0  0
    8.1099    2.5559    0.0000 C   0  0  0  0  0  0  0  0  0  0  0  0
    8.9349    2.5559    0.0000 C   0  0  0  0  0  0  0  0  0  0  0  0
    9.3474    1.8414    0.0000 C   0  0  0  0  0  0  0  0  0  0  0  0
   10.1724    1.8414    0.0000 C   0  0  0  0  0  0  0  0  0  0  0  0
   10.5849    2.5559    0.0000 C   0  0  0  0  0  0  0  0  0  0  0  0
   10.1724    3.2704    0.0000 N   0  0  0  0  0  0  0  0  0  0  0  0
   10.5849    3.9849    0.0000 C   0  0  0  0  0  0  0  0  0  0  0  0
   11.4099    3.9849    0.0000 O   0  0  0  0  0  0  0  0  0  0  0  0
   10.1724    4.6993    0.0000 C   0  0  0  0  0  0  0  0  0  0  0  0
    9.7599    5.4138    0.0000 F   0  0  0  0  0  0  0  0  0  0  0  0
    9.4579    4.2868    0.0000 F   0  0  0  0  0  0  0  0  0  0  0  0
   10.8868    5.1118    0.0000 F   0  0  0  0  0  0  0  0  0  0  0  0
   11.4099    2.5559    0.0000 C   0  0  0  0  0  0  0  0  0  0  0  0
   11.8224    1.8414    0.0000 C   0  0  0  0  0  0  0  0  0  0  0  0
   11.4099    1.1270    0.0000 C   0  0  0  0  0  0  0  0  0  0  0  0
   11.8224    0.4125    0.0000 Cl  0  0  0  0  0  0  0  0  0  0  0  0
   10.5849    1.1270    0.0000 C   0  0  0  0  0  0  0  0  0  0  0  0
   10.1724    0.4125    0.0000 F   0  0  0  0  0  0  0  0  0  0  0  0
    8.9349    1.1270    0.0000 C   0  0  0  0  0  0  0  0  0  0  0  0
    8.1099    1.1270    0.0000 C   0  0  0  0  0  0  0  0  0  0  0  0
    7.6974    0.4125    0.0000 O   0  0  0  0  0  0  0  0  0  0  0  0
    6.4599    1.1270    0.0000 C   0  0  0  0  0  0  0  0  0  0  0  0
    5.6349    1.1270    0.0000 C   0  0  0  0  0  0  0  0  0  0  0  0
    5.2224    0.4125    0.0000 C   0  0  0  0  0  0  0  0  0  0  0  0
    5.6349   -0.3020    0.0000 C   0  0  0  0  0  0  0  0  0  0  0  0
    6.4599   -0.3020    0.0000 C   0  0  0  0  0  0  0  0  0  0  0  0
    6.8724    0.4125    0.0000 N   0  0  0  0  0  0  0  0  0  0  0  0
    4.3974    0.4125    0.0000 C   0  0  0  0  0  0  0  0  0  0  0  0
    3.9849   -0.3020    0.0000 C   0  0  0  0  0  0  0  0  0  0  0  0
    3.1599   -0.3020    0.0000 C   0  0  0  0  0  0  0  0  0  0  0  0
    2.7474    0.4125    0.0000 C   0  0  0  0  0  0  0  0  0  0  0  0
    3.1599    1.1270    0.0000 C   0  0  0  0  0  0  0  0  0  0  0  0
    3.9849    1.1270    0.0000 C   0  0  0  0  0  0  0  0  0  0  0  0
    4.3974    1.8414    0.0000 N   0  0  0  0  0  0  0  0  0  0  0  0
    3.9849    2.5559    0.0000 C   0  0  0  0  0  0  0  0  0  0  0  0
    3.1599    2.5559    0.0000 O   0  0  0  0  0  0  0  0  0  0  0  0
  2  1  1  6  0  0  0
  2  3  1  0  0  0  0
  3  4  1  0  0  0  0
  4  5  1  0  0  0  0
  5  6  1  0  0  0  0
  6  7  1  6  0  0  0
  7  8  1  0  0  0  0
  8  9  1  0  0  0  0
  9 10  1  0  0  0  0
 10 11  1  0  0  0  0
 11 12  4  0  0  0  0
 12 13  1  0  0  0  0
 13 14  1  0  0  0  0
 14 15  2  0  0  0  0
 14 16  1  0  0  0  0
 16 17  1  0  0  0  0
 16 18  1  0  0  0  0
 16 19  1  0  0  0  0
 12 20  4  0  0  0  0
 20 21  4  0  0  0  0
 21 22  4  0  0  0  0
 22 23  1  0  0  0  0
 22 24  4  0  0  0  0
 11 24  4  0  0  0  0
 24 25  1  0  0  0  0
 10 26  2  0  0  0  0
 26 27  1  0  0  0  0
  7 27  1  0  0  0  0
 27 28  2  0  0  0  0
  6 29  1  0  0  0  0
 29 30  4  0  0  0  0
 30 31  4  0  0  0  0
 31 32  4  0  0  0  0
 32 33  4  0  0  0  0
 33 34  4  0  0  0  0
 29 34  4  0  0  0  0
 31 35  1  0  0  0  0
 35 36  4  0  0  0  0
 36 37  4  0  0  0  0
 37 38  4  0  0  0  0
 38 39  4  0  0  0  0
 39 40  4  0  0  0  0
 35 40  4  0  0  0  0
 40 41  1  0  0  0  0
 41 42  1  0  0  0  0
  2 42  1  0  0  0  0
 42 43  2  0  0  0  0
M  END
>  <CdId>
358432

>  <Mol Weight>
615.018

>  <Formula>
C31H27ClF4N4O3

>  <cmpd_chemblid>
CHEMBL4110980

>  <std_type>
Ki

>  <std_value>
7.38

>  <std_unit>
nM

>  <target_id>
CHEMBL2016

>  <target_name>
Coagulation factor IX

>  <organism>
Homo sapiens

>  <target_type>
SINGLE PROTEIN

$$$$

  Mrv0541 08052111042D          

 41 45  0  0  1  0            999 V2000
    3.9849    3.9849    0.0000 C   0  0  0  0  0  0  0  0  0  0  0  0
    4.3974    3.2704    0.0000 C   0  0  2  0  0  0  0  0  0  0  0  0
    5.2224    3.2704    0.0000 C   0  0  0  0  0  0  0  0  0  0  0  0
    5.6349    2.5559    0.0000 C   0  0  0  0  0  0  0  0  0  0  0  0
    6.4599    2.5559    0.0000 C   0  0  0  0  0  0  0  0  0  0  0  0
    6.8724    1.8414    0.0000 C   0  0  2  0  0  0  0  0  0  0  0  0
    7.6974    1.8414    0.0000 N   0  0  0  0  0  0  0  0  0  0  0  0
    8.1099    2.5559    0.0000 C   0  0  0  0  0  0  0  0  0  0  0  0
    8.9349    2.5559    0.0000 C   0  0  0  0  0  0  0  0  0  0  0  0
    9.3474    1.8414    0.0000 C   0  0  0  0  0  0  0  0  0  0  0  0
   10.1724    1.8414    0.0000 C   0  0  0  0  0  0  0  0  0  0  0  0
   10.5849    2.5559    0.0000 C   0  0  0  0  0  0  0  0  0  0  0  0
   10.1724    3.2704    0.0000 F   0  0  0  0  0  0  0  0  0  0  0  0
   11.4099    2.5559    0.0000 C   0  0  0  0  0  0  0  0  0  0  0  0
   11.8224    1.8414    0.0000 C   0  0  0  0  0  0  0  0  0  0  0  0
   11.4099    1.1270    0.0000 C   0  0  0  0  0  0  0  0  0  0  0  0
   11.8224    0.4125    0.0000 Cl  0  0  0  0  0  0  0  0  0  0  0  0
   10.5849    1.1270    0.0000 C   0  0  0  0  0  0  0  0  0  0  0  0
   10.1724    0.4125    0.0000 F   0  0  0  0  0  0  0  0  0  0  0  0
    8.9349    1.1270    0.0000 C   0  0  0  0  0  0  0  0  0  0  0  0
    8.1099    1.1270    0.0000 C   0  0  0  0  0  0  0  0  0  0  0  0
    7.6974    0.4125    0.0000 O   0  0  0  0  0  0  0  0  0  0  0  0
    6.4599    1.1270    0.0000 C   0  0  0  0  0  0  0  0  0  0  0  0
    5.6349    1.1270    0.0000 C   0  0  0  0  0  0  0  0  0  0  0  0
    5.2224    0.4125    0.0000 C   0  0  0  0  0  0  0  0  0  0  0  0
    5.6349   -0.3020    0.0000 C   0  0  0  0  0  0  0  0  0  0  0  0
    6.4599   -0.3020    0.0000 C   0  0  0  0  0  0  0  0  0  0  0  0
    6.8724    0.4125    0.0000 N   0  0  0  0  0  0  0  0  0  0  0  0
    4.3974    0.4125    0.0000 C   0  0  0  0  0  0  0  0  0  0  0  0
    3.9849   -0.3020    0.0000 C   0  0  0  0  0  0  0  0  0  0  0  0
    3.1599   -0.3020    0.0000 C   0  0  0  0  0  0  0  0  0  0  0  0
    2.7474   -1.0164    0.0000 C   0  0  0  0  0  0  0  0  0  0  0  0
    3.1599   -1.7309    0.0000 O   0  0  0  0  0  0  0  0  0  0  0  0
    1.9224   -1.0164    0.0000 O   0  0  0  0  0  0  0  0  0  0  0  0
    2.7474    0.4125    0.0000 C   0  0  0  0  0  0  0  0  0  0  0  0
    1.9224    0.4125    0.0000 N   0  0  0  0  0  0  0  0  0  0  0  0
    3.1599    1.1270    0.0000 C   0  0  0  0  0  0  0  0  0  0  0  0
    3.9849    1.1270    0.0000 C   0  0  0  0  0  0  0  0  0  0  0  0
    4.3974    1.8414    0.0000 N   0  0  0  0  0  0  0  0  0  0  0  0
    3.9849    2.5559    0.0000 C   0  0  0  0  0  0  0  0  0  0  0  0
    3.1599    2.5559    0.0000 O   0  0  0  0  0  0  0  0  0  0  0  0
  2  1  1  6  0  0  0
  2  3  1  0  0  0  0
  3  4  1  0  0  0  0
  4  5  1  0  0  0  0
  5  6  1  0  0  0  0
  6  7  1  6  0  0  0
  7  8  1  0  0  0  0
  8  9  1  0  0  0  0
  9 10  1  0  0  0  0
 10 11  1  0  0  0  0
 11 12  4  0  0  0  0
 12 13  1  0  0  0  0
 12 14  4  0  0  0  0
 14 15  4  0  0  0  0
 15 16  4  0  0  0  0
 16 17  1  0  0  0  0
 16 18  4  0  0  0  0
 11 18  4  0  0  0  0
 18 19  1  0  0  0  0
 10 20  2  0  0  0  0
 20 21  1  0  0  0  0
  7 21  1  0  0  0  0
 21 22  2  0  0  0  0
  6 23  1  0  0  0  0
 23 24  4  0  0  0  0
 24 25  4  0  0  0  0
 25 26  4  0  0  0  0
 26 27  4  0  0  0  0
 27 28  4  0  0  0  0
 23 28  4  0  0  0  0
 25 29  1  0  0  0  0
 29 30  4  0  0  0  0
 30 31  4  0  0  0  0
 31 32  1  0  0  0  0
 32 33  2  0  0  0  0
 32 34  1  0  0  0  0
 31 35  4  0  0  0  0
 35 36  1  0  0  0  0
 35 37  4  0  0  0  0
 37 38  4  0  0  0  0
 29 38  4  0  0  0  0
 38 39  1  0  0  0  0
 39 40  1  0  0  0  0
  2 40  1  0  0  0  0
 40 41  2  0  0  0  0
M  END
>  <CdId>
358433

>  <Mol Weight>
581.01

>  <Formula>
C30H27ClF2N4O4

>  <cmpd_chemblid>
CHEMBL4115159

>  <std_type>
Ki

>  <std_value>
0.05

>  <std_unit>
nM

>  <target_id>
CHEMBL2016

>  <target_name>
Coagulation factor IX

>  <organism>
Homo sapiens

>  <target_type>
SINGLE PROTEIN

$$$$

  Mrv0541 08052111042D          

 43 46  0  0  0  0            999 V2000
    2.8571   -2.4463    0.0000 N   0  0  0  0  0  0  0  0  0  0  0  0
    2.1426   -2.0338    0.0000 C   0  0  0  0  0  0  0  0  0  0  0  0
    2.1426   -1.2088    0.0000 N   0  0  0  0  0  0  0  0  0  0  0  0
    1.4282   -2.4463    0.0000 C   0  0  0  0  0  0  0  0  0  0  0  0
    1.4282   -3.2713    0.0000 C   0  0  0  0  0  0  0  0  0  0  0  0
    0.7137   -3.6838    0.0000 C   0  0  0  0  0  0  0  0  0  0  0  0
   -0.0008   -3.2713    0.0000 C   0  0  0  0  0  0  0  0  0  0  0  0
   -0.7854   -3.5262    0.0000 S   0  0  0  0  0  0  0  0  0  0  0  0
   -1.2703   -2.8588    0.0000 C   0  0  0  0  0  0  0  0  0  0  0  0
   -0.7854   -2.1913    0.0000 C   0  0  0  0  0  0  0  0  0  0  0  0
   -1.0403   -1.4067    0.0000 C   0  0  0  0  0  0  0  0  0  0  0  0
   -1.8473   -1.2352    0.0000 C   0  0  0  0  0  0  0  0  0  0  0  0
   -2.1022   -0.4505    0.0000 C   0  0  0  0  0  0  0  0  0  0  0  0
   -2.9092   -0.2790    0.0000 C   0  0  0  0  0  0  0  0  0  0  0  0
   -3.1641    0.5056    0.0000 C   0  0  0  0  0  0  0  0  0  0  0  0
   -2.6121    1.1187    0.0000 C   0  0  0  0  0  0  0  0  0  0  0  0
   -1.8051    0.9472    0.0000 C   0  0  0  0  0  0  0  0  0  0  0  0
   -1.5502    0.1626    0.0000 C   0  0  0  0  0  0  0  0  0  0  0  0
   -0.4883   -0.7936    0.0000 C   0  0  0  0  0  0  0  0  0  0  0  0
    0.3187   -0.9651    0.0000 O   0  0  0  0  0  0  0  0  0  0  0  0
   -0.7432   -0.0090    0.0000 N   0  0  0  0  0  0  0  0  0  0  0  0
   -0.1912    0.6041    0.0000 C   0  0  0  0  0  0  0  0  0  0  0  0
   -0.4461    1.3887    0.0000 C   0  0  0  0  0  0  0  0  0  0  0  0
    0.1059    2.0018    0.0000 C   0  0  0  0  0  0  0  0  0  0  0  0
    0.9129    1.8303    0.0000 C   0  0  0  0  0  0  0  0  0  0  0  0
    1.4649    2.4434    0.0000 O   0  0  0  0  0  0  0  0  0  0  0  0
    1.2100    3.2280    0.0000 C   0  0  0  0  0  0  0  0  0  0  0  0
    0.4030    3.3996    0.0000 C   0  0  0  0  0  0  0  0  0  0  0  0
    0.1480    4.1842    0.0000 C   0  0  0  0  0  0  0  0  0  0  0  0
    0.7001    4.7973    0.0000 C   0  0  0  0  0  0  0  0  0  0  0  0
    1.5071    4.6257    0.0000 C   0  0  0  0  0  0  0  0  0  0  0  0
    1.7620    3.8411    0.0000 C   0  0  0  0  0  0  0  0  0  0  0  0
    1.1678    1.0457    0.0000 C   0  0  0  0  0  0  0  0  0  0  0  0
    0.6158    0.4326    0.0000 C   0  0  0  0  0  0  0  0  0  0  0  0
   -0.0008   -2.4463    0.0000 C   0  0  0  0  0  0  0  0  0  0  0  0
    0.7137   -2.0338    0.0000 C   0  0  0  0  0  0  0  0  0  0  0  0
    4.9712   -0.8839    0.0000 O   0  0  0  0  0  0  0  0  0  0  0  0
    5.6857   -0.4714    0.0000 C   0  0  0  0  0  0  0  0  0  0  0  0
    6.4002   -0.8839    0.0000 O   0  0  0  0  0  0  0  0  0  0  0  0
    5.6857    0.3536    0.0000 C   0  0  0  0  0  0  0  0  0  0  0  0
    5.6857    1.1786    0.0000 F   0  0  0  0  0  0  0  0  0  0  0  0
    6.5107    0.3536    0.0000 F   0  0  0  0  0  0  0  0  0  0  0  0
    4.8607    0.3536    0.0000 F   0  0  0  0  0  0  0  0  0  0  0  0
  1  2  2  0  0  0  0
  2  3  1  0  0  0  0
  2  4  1  0  0  0  0
  4  5  4  0  0  0  0
  5  6  4  0  0  0  0
  6  7  4  0  0  0  0
  7  8  4  0  0  0  0
  8  9  4  0  0  0  0
  9 10  4  0  0  0  0
 10 11  1  0  0  0  0
 11 12  1  0  0  0  0
 12 13  1  0  0  0  0
 13 14  4  0  0  0  0
 14 15  4  0  0  0  0
 15 16  4  0  0  0  0
 16 17  4  0  0  0  0
 17 18  4  0  0  0  0
 13 18  4  0  0  0  0
 11 19  1  0  0  0  0
 19 20  2  0  0  0  0
 19 21  1  0  0  0  0
 21 22  1  0  0  0  0
 22 23  4  0  0  0  0
 23 24  4  0  0  0  0
 24 25  4  0  0  0  0
 25 26  1  0  0  0  0
 26 27  1  0  0  0  0
 27 28  4  0  0  0  0
 28 29  4  0  0  0  0
 29 30  4  0  0  0  0
 30 31  4  0  0  0  0
 31 32  4  0  0  0  0
 27 32  4  0  0  0  0
 25 33  4  0  0  0  0
 33 34  4  0  0  0  0
 22 34  4  0  0  0  0
 10 35  4  0  0  0  0
  7 35  4  0  0  0  0
 35 36  4  0  0  0  0
  4 36  4  0  0  0  0
 37 38  2  0  0  0  0
 38 39  1  0  0  0  0
 38 40  1  0  0  0  0
 40 41  1  0  0  0  0
 40 42  1  0  0  0  0
 40 43  1  0  0  0  0
M  END
>  <CdId>
358434

>  <Mol Weight>
605.627

>  <Formula>
C32H26F3N3O4S

>  <cmpd_chemblid>
CHEMBL367575

>  <std_type>
Ki

>  <std_value>
250.0

>  <std_unit>
nM

>  <target_id>
CHEMBL2016

>  <target_name>
Coagulation factor IX

>  <organism>
Homo sapiens

>  <target_type>
SINGLE PROTEIN

$$$$

  Mrv0541 08052111042D          

 33 36  0  0  1  0            999 V2000
    2.1434   -6.1875    0.0000 N   0  0  0  0  0  0  0  0  0  0  0  0
    2.8579   -6.6000    0.0000 C   0  0  0  0  0  0  0  0  0  0  0  0
    3.5724   -6.1875    0.0000 N   0  0  0  0  0  0  0  0  0  0  0  0
    2.8579   -7.4250    0.0000 C   0  0  0  0  0  0  0  0  0  0  0  0
    3.5724   -7.8375    0.0000 C   0  0  0  0  0  0  0  0  0  0  0  0
    3.5724   -8.6625    0.0000 C   0  0  0  0  0  0  0  0  0  0  0  0
    2.8579   -9.0750    0.0000 C   0  0  0  0  0  0  0  0  0  0  0  0
    2.8579   -9.9000    0.0000 N   0  0  0  0  0  0  0  0  0  0  0  0
    3.5724  -10.3125    0.0000 C   0  0  0  0  0  0  0  0  0  0  0  0
    4.2868   -9.9000    0.0000 O   0  0  0  0  0  0  0  0  0  0  0  0
    3.5724  -11.1375    0.0000 C   0  0  2  0  0  0  0  0  0  0  0  0
    2.8579  -11.5500    0.0000 O   0  0  0  0  0  0  0  0  0  0  0  0
    4.2868  -11.5500    0.0000 C   0  0  1  0  0  0  0  0  0  0  0  0
    5.0013  -11.1375    0.0000 O   0  0  0  0  0  0  0  0  0  0  0  0
    5.7158  -11.5500    0.0000 C   0  0  0  0  0  0  0  0  0  0  0  0
    5.7158  -12.3750    0.0000 C   0  0  0  0  0  0  0  0  0  0  0  0
    5.0013  -12.7875    0.0000 N   0  0  0  0  0  0  0  0  0  0  0  0
    5.0013  -13.6125    0.0000 C   0  0  0  0  0  0  0  0  0  0  0  0
    5.7158  -14.0250    0.0000 C   0  0  0  0  0  0  0  0  0  0  0  0
    5.7158  -14.8500    0.0000 C   0  0  0  0  0  0  0  0  0  0  0  0
    5.0013  -15.2625    0.0000 C   0  0  0  0  0  0  0  0  0  0  0  0
    5.0013  -16.0875    0.0000 C   0  0  0  0  0  0  0  0  0  0  0  0
    5.7158  -16.5000    0.0000 C   0  0  0  0  0  0  0  0  0  0  0  0
    5.7158  -17.3250    0.0000 C   0  0  0  0  0  0  0  0  0  0  0  0
    5.0013  -17.7375    0.0000 C   0  0  0  0  0  0  0  0  0  0  0  0
    4.2868  -17.3250    0.0000 C   0  0  0  0  0  0  0  0  0  0  0  0
    4.2868  -16.5000    0.0000 C   0  0  0  0  0  0  0  0  0  0  0  0
    4.2868  -14.8500    0.0000 C   0  0  0  0  0  0  0  0  0  0  0  0
    4.2868  -14.0250    0.0000 C   0  0  0  0  0  0  0  0  0  0  0  0
    4.2868  -12.3750    0.0000 C   0  0  0  0  0  0  0  0  0  0  0  0
    3.5724  -12.7875    0.0000 O   0  0  0  0  0  0  0  0  0  0  0  0
    2.1434   -8.6625    0.0000 C   0  0  0  0  0  0  0  0  0  0  0  0
    2.1434   -7.8375    0.0000 C   0  0  0  0  0  0  0  0  0  0  0  0
  1  2  2  0  0  0  0
  2  3  1  0  0  0  0
  2  4  1  0  0  0  0
  4  5  4  0  0  0  0
  5  6  4  0  0  0  0
  6  7  4  0  0  0  0
  7  8  1  0  0  0  0
  8  9  1  0  0  0  0
  9 10  2  0  0  0  0
  9 11  1  0  0  0  0
 11 12  1  1  0  0  0
 13 11  1  1  0  0  0
 13 14  1  0  0  0  0
 14 15  1  0  0  0  0
 15 16  1  0  0  0  0
 16 17  1  0  0  0  0
 17 18  1  0  0  0  0
 18 19  4  0  0  0  0
 19 20  4  0  0  0  0
 20 21  4  0  0  0  0
 21 22  1  0  0  0  0
 22 23  1  0  0  0  0
 23 24  1  0  0  0  0
 24 25  1  0  0  0  0
 25 26  1  0  0  0  0
 26 27  1  0  0  0  0
 22 27  1  0  0  0  0
 21 28  4  0  0  0  0
 28 29  4  0  0  0  0
 18 29  4  0  0  0  0
 17 30  1  0  0  0  0
 13 30  1  0  0  0  0
 30 31  2  0  0  0  0
  7 32  4  0  0  0  0
 32 33  4  0  0  0  0
  4 33  4  0  0  0  0
M  END
>  <CdId>
358436

>  <Mol Weight>
450.5301

>  <Formula>
C25H30N4O4

>  <cmpd_chemblid>
CHEMBL3658389

>  <std_type>
Ki

>  <std_value>
10.0

>  <std_unit>
nM

>  <target_id>
CHEMBL2016

>  <target_name>
Coagulation factor IX

>  <organism>
Homo sapiens

>  <target_type>
SINGLE PROTEIN

$$$$

  Mrv0541 08052111042D          

 43 47  0  0  1  0            999 V2000
    8.6329   -2.2539    0.0000 C   0  0  0  0  0  0  0  0  0  0  0  0
    8.2204   -1.5395    0.0000 O   0  0  0  0  0  0  0  0  0  0  0  0
    7.3954   -1.5395    0.0000 C   0  0  0  0  0  0  0  0  0  0  0  0
    6.9829   -2.2539    0.0000 O   0  0  0  0  0  0  0  0  0  0  0  0
    6.9829   -0.8250    0.0000 N   0  0  0  0  0  0  0  0  0  0  0  0
    6.1579   -0.8250    0.0000 C   0  0  0  0  0  0  0  0  0  0  0  0
    5.7454   -0.1105    0.0000 C   0  0  0  0  0  0  0  0  0  0  0  0
    4.9204   -0.1105    0.0000 C   0  0  0  0  0  0  0  0  0  0  0  0
    4.5079   -0.8250    0.0000 C   0  0  0  0  0  0  0  0  0  0  0  0
    4.9204   -1.5395    0.0000 C   0  0  0  0  0  0  0  0  0  0  0  0
    5.7454   -1.5395    0.0000 C   0  0  0  0  0  0  0  0  0  0  0  0
    4.5079   -2.2539    0.0000 N   0  0  0  0  0  0  0  0  0  0  0  0
    4.9204   -2.9684    0.0000 C   0  0  0  0  0  0  0  0  0  0  0  0
    5.7454   -2.9684    0.0000 O   0  0  0  0  0  0  0  0  0  0  0  0
    4.5079   -3.6829    0.0000 C   0  0  2  0  0  0  0  0  0  0  0  0
    4.9204   -4.3974    0.0000 C   0  0  0  0  0  0  0  0  0  0  0  0
    3.6829   -3.6829    0.0000 C   0  0  0  0  0  0  0  0  0  0  0  0
    3.2704   -2.9684    0.0000 C   0  0  0  0  0  0  0  0  0  0  0  0
    2.4454   -2.9684    0.0000 C   0  0  0  0  0  0  0  0  0  0  0  0
    2.0329   -2.2539    0.0000 C   0  0  2  0  0  0  0  0  0  0  0  0
    1.2079   -2.2539    0.0000 N   0  0  0  0  0  0  0  0  0  0  0  0
    0.7954   -2.9684    0.0000 C   0  0  0  0  0  0  0  0  0  0  0  0
   -0.0296   -2.9684    0.0000 C   0  0  0  0  0  0  0  0  0  0  0  0
   -0.4421   -2.2539    0.0000 C   0  0  0  0  0  0  0  0  0  0  0  0
   -1.2671   -2.2539    0.0000 C   0  0  0  0  0  0  0  0  0  0  0  0
   -1.6796   -2.9684    0.0000 N   0  0  0  0  0  0  0  0  0  0  0  0
   -2.5046   -2.9684    0.0000 C   0  0  0  0  0  0  0  0  0  0  0  0
   -2.9171   -2.2539    0.0000 C   0  0  0  0  0  0  0  0  0  0  0  0
   -2.5046   -1.5395    0.0000 C   0  0  0  0  0  0  0  0  0  0  0  0
   -2.9171   -0.8250    0.0000 Cl  0  0  0  0  0  0  0  0  0  0  0  0
   -1.6796   -1.5395    0.0000 C   0  0  0  0  0  0  0  0  0  0  0  0
   -1.2671   -0.8250    0.0000 F   0  0  0  0  0  0  0  0  0  0  0  0
   -0.0296   -1.5395    0.0000 C   0  0  0  0  0  0  0  0  0  0  0  0
    0.7954   -1.5395    0.0000 C   0  0  0  0  0  0  0  0  0  0  0  0
    1.2079   -0.8250    0.0000 O   0  0  0  0  0  0  0  0  0  0  0  0
    2.4454   -1.5395    0.0000 C   0  0  0  0  0  0  0  0  0  0  0  0
    3.2704   -1.5395    0.0000 C   0  0  0  0  0  0  0  0  0  0  0  0
    3.6829   -0.8250    0.0000 C   0  0  0  0  0  0  0  0  0  0  0  0
    3.2704   -0.1105    0.0000 C   0  0  0  0  0  0  0  0  0  0  0  0
    2.4454   -0.1105    0.0000 C   0  0  0  0  0  0  0  0  0  0  0  0
    2.0329    0.6039    0.0000 O   0  0  0  0  0  0  0  0  0  0  0  0
    1.2079    0.6039    0.0000 C   0  0  0  0  0  0  0  0  0  0  0  0
    2.0329   -0.8250    0.0000 N   0  0  0  0  0  0  0  0  0  0  0  0
  1  2  1  0  0  0  0
  2  3  1  0  0  0  0
  3  4  2  0  0  0  0
  3  5  1  0  0  0  0
  5  6  1  0  0  0  0
  6  7  4  0  0  0  0
  7  8  4  0  0  0  0
  8  9  4  0  0  0  0
  9 10  4  0  0  0  0
 10 11  4  0  0  0  0
  6 11  4  0  0  0  0
 10 12  1  0  0  0  0
 12 13  1  0  0  0  0
 13 14  2  0  0  0  0
 13 15  1  0  0  0  0
 15 16  1  6  0  0  0
 15 17  1  0  0  0  0
 17 18  1  0  0  0  0
 18 19  1  0  0  0  0
 19 20  1  0  0  0  0
 20 21  1  6  0  0  0
 21 22  1  0  0  0  0
 22 23  1  0  0  0  0
 23 24  1  0  0  0  0
 24 25  1  0  0  0  0
 25 26  4  0  0  0  0
 26 27  4  0  0  0  0
 27 28  4  0  0  0  0
 28 29  4  0  0  0  0
 29 30  1  0  0  0  0
 29 31  4  0  0  0  0
 25 31  4  0  0  0  0
 31 32  1  0  0  0  0
 24 33  2  0  0  0  0
 33 34  1  0  0  0  0
 21 34  1  0  0  0  0
 34 35  2  0  0  0  0
 20 36  1  0  0  0  0
 36 37  4  0  0  0  0
 37 38  4  0  0  0  0
  9 38  1  0  0  0  0
 38 39  4  0  0  0  0
 39 40  4  0  0  0  0
 40 41  1  0  0  0  0
 41 42  1  0  0  0  0
 40 43  4  0  0  0  0
 36 43  4  0  0  0  0
M  END
>  <CdId>
358437

>  <Mol Weight>
608.06

>  <Formula>
C31H31ClFN5O5

>  <cmpd_chemblid>
CHEMBL4115195

>  <std_type>
Ki

>  <std_value>
2.0

>  <std_unit>
nM

>  <target_id>
CHEMBL2016

>  <target_name>
Coagulation factor IX

>  <organism>
Homo sapiens

>  <target_type>
SINGLE PROTEIN

$$$$

  Mrv0541 08052111042D          

 43 47  0  0  1  0            999 V2000
    8.6329   -2.2539    0.0000 C   0  0  0  0  0  0  0  0  0  0  0  0
    8.2204   -1.5395    0.0000 O   0  0  0  0  0  0  0  0  0  0  0  0
    7.3954   -1.5395    0.0000 C   0  0  0  0  0  0  0  0  0  0  0  0
    6.9829   -2.2539    0.0000 O   0  0  0  0  0  0  0  0  0  0  0  0
    6.9829   -0.8250    0.0000 N   0  0  0  0  0  0  0  0  0  0  0  0
    6.1579   -0.8250    0.0000 C   0  0  0  0  0  0  0  0  0  0  0  0
    5.7454   -0.1105    0.0000 C   0  0  0  0  0  0  0  0  0  0  0  0
    4.9204   -0.1105    0.0000 C   0  0  0  0  0  0  0  0  0  0  0  0
    4.5079   -0.8250    0.0000 C   0  0  0  0  0  0  0  0  0  0  0  0
    4.9204   -1.5395    0.0000 C   0  0  0  0  0  0  0  0  0  0  0  0
    5.7454   -1.5395    0.0000 C   0  0  0  0  0  0  0  0  0  0  0  0
    4.5079   -2.2539    0.0000 N   0  0  0  0  0  0  0  0  0  0  0  0
    4.9204   -2.9684    0.0000 C   0  0  0  0  0  0  0  0  0  0  0  0
    5.7454   -2.9684    0.0000 O   0  0  0  0  0  0  0  0  0  0  0  0
    4.5079   -3.6829    0.0000 C   0  0  2  0  0  0  0  0  0  0  0  0
    4.9204   -4.3974    0.0000 C   0  0  0  0  0  0  0  0  0  0  0  0
    3.6829   -3.6829    0.0000 C   0  0  0  0  0  0  0  0  0  0  0  0
    3.2704   -2.9684    0.0000 C   0  0  0  0  0  0  0  0  0  0  0  0
    3.6829   -2.2539    0.0000 O   0  0  0  0  0  0  0  0  0  0  0  0
    2.4454   -2.9684    0.0000 C   0  0  0  0  0  0  0  0  0  0  0  0
    2.0329   -2.2539    0.0000 C   0  0  2  0  0  0  0  0  0  0  0  0
    1.2079   -2.2539    0.0000 N   0  0  0  0  0  0  0  0  0  0  0  0
    0.7954   -2.9684    0.0000 C   0  0  0  0  0  0  0  0  0  0  0  0
   -0.0296   -2.9684    0.0000 C   0  0  0  0  0  0  0  0  0  0  0  0
   -0.4421   -2.2539    0.0000 C   0  0  0  0  0  0  0  0  0  0  0  0
   -1.2671   -2.2539    0.0000 C   0  0  0  0  0  0  0  0  0  0  0  0
   -1.6796   -2.9684    0.0000 C   0  0  0  0  0  0  0  0  0  0  0  0
   -1.2671   -3.6829    0.0000 F   0  0  0  0  0  0  0  0  0  0  0  0
   -2.5046   -2.9684    0.0000 C   0  0  0  0  0  0  0  0  0  0  0  0
   -2.9171   -2.2539    0.0000 C   0  0  0  0  0  0  0  0  0  0  0  0
   -2.5046   -1.5395    0.0000 C   0  0  0  0  0  0  0  0  0  0  0  0
   -2.9171   -0.8250    0.0000 Cl  0  0  0  0  0  0  0  0  0  0  0  0
   -1.6796   -1.5395    0.0000 C   0  0  0  0  0  0  0  0  0  0  0  0
   -1.2671   -0.8250    0.0000 F   0  0  0  0  0  0  0  0  0  0  0  0
   -0.0296   -1.5395    0.0000 C   0  0  0  0  0  0  0  0  0  0  0  0
    0.7954   -1.5395    0.0000 C   0  0  0  0  0  0  0  0  0  0  0  0
    1.2079   -0.8250    0.0000 O   0  0  0  0  0  0  0  0  0  0  0  0
    2.4454   -1.5395    0.0000 C   0  0  0  0  0  0  0  0  0  0  0  0
    3.2704   -1.5395    0.0000 C   0  0  0  0  0  0  0  0  0  0  0  0
    3.6829   -0.8250    0.0000 C   0  0  0  0  0  0  0  0  0  0  0  0
    3.2704   -0.1105    0.0000 C   0  0  0  0  0  0  0  0  0  0  0  0
    2.4454   -0.1105    0.0000 C   0  0  0  0  0  0  0  0  0  0  0  0
    2.0329   -0.8250    0.0000 N   0  0  0  0  0  0  0  0  0  0  0  0
  1  2  1  0  0  0  0
  2  3  1  0  0  0  0
  3  4  2  0  0  0  0
  3  5  1  0  0  0  0
  5  6  1  0  0  0  0
  6  7  4  0  0  0  0
  7  8  4  0  0  0  0
  8  9  4  0  0  0  0
  9 10  4  0  0  0  0
 10 11  4  0  0  0  0
  6 11  4  0  0  0  0
 10 12  1  0  0  0  0
 12 13  1  0  0  0  0
 13 14  2  0  0  0  0
 13 15  1  0  0  0  0
 15 16  1  6  0  0  0
 15 17  1  0  0  0  0
 17 18  1  0  0  0  0
 18 19  2  0  0  0  0
 18 20  1  0  0  0  0
 20 21  1  0  0  0  0
 21 22  1  6  0  0  0
 22 23  1  0  0  0  0
 23 24  1  0  0  0  0
 24 25  1  0  0  0  0
 25 26  1  0  0  0  0
 26 27  4  0  0  0  0
 27 28  1  0  0  0  0
 27 29  4  0  0  0  0
 29 30  4  0  0  0  0
 30 31  4  0  0  0  0
 31 32  1  0  0  0  0
 31 33  4  0  0  0  0
 26 33  4  0  0  0  0
 33 34  1  0  0  0  0
 25 35  2  0  0  0  0
 35 36  1  0  0  0  0
 22 36  1  0  0  0  0
 36 37  2  0  0  0  0
 21 38  1  0  0  0  0
 38 39  4  0  0  0  0
 39 40  4  0  0  0  0
  9 40  1  0  0  0  0
 40 41  4  0  0  0  0
 41 42  4  0  0  0  0
 42 43  4  0  0  0  0
 38 43  4  0  0  0  0
M  END
>  <CdId>
358439

>  <Mol Weight>
609.02

>  <Formula>
C31H27ClF2N4O5

>  <cmpd_chemblid>
CHEMBL4106755

>  <std_type>
Ki

>  <std_value>
437.5

>  <std_unit>
nM

>  <target_id>
CHEMBL2016

>  <target_name>
Coagulation factor IX

>  <organism>
Homo sapiens

>  <target_type>
SINGLE PROTEIN

$$$$

  Mrv0541 08052111042D          

 44 49  0  0  1  0            999 V2000
    3.9849    3.9849    0.0000 C   0  0  0  0  0  0  0  0  0  0  0  0
    4.3974    3.2704    0.0000 C   0  0  2  0  0  0  0  0  0  0  0  0
    5.2224    3.2704    0.0000 C   0  0  0  0  0  0  0  0  0  0  0  0
    5.6349    2.5559    0.0000 C   0  0  0  0  0  0  0  0  0  0  0  0
    6.4599    2.5559    0.0000 C   0  0  0  0  0  0  0  0  0  0  0  0
    6.8724    1.8414    0.0000 C   0  0  2  0  0  0  0  0  0  0  0  0
    7.6974    1.8414    0.0000 N   0  0  0  0  0  0  0  0  0  0  0  0
    8.1099    2.5559    0.0000 C   0  0  0  0  0  0  0  0  0  0  0  0
    8.9349    2.5559    0.0000 C   0  0  0  0  0  0  0  0  0  0  0  0
    9.3474    1.8414    0.0000 C   0  0  0  0  0  0  0  0  0  0  0  0
   10.1724    1.8414    0.0000 C   0  0  0  0  0  0  0  0  0  0  0  0
   10.5849    2.5559    0.0000 C   0  0  0  0  0  0  0  0  0  0  0  0
   10.1724    3.2704    0.0000 F   0  0  0  0  0  0  0  0  0  0  0  0
   11.4099    2.5559    0.0000 C   0  0  0  0  0  0  0  0  0  0  0  0
   11.8224    1.8414    0.0000 C   0  0  0  0  0  0  0  0  0  0  0  0
   11.4099    1.1270    0.0000 C   0  0  0  0  0  0  0  0  0  0  0  0
   11.8224    0.4125    0.0000 Cl  0  0  0  0  0  0  0  0  0  0  0  0
   10.5849    1.1270    0.0000 C   0  0  0  0  0  0  0  0  0  0  0  0
   10.1724    0.4125    0.0000 F   0  0  0  0  0  0  0  0  0  0  0  0
    8.9349    1.1270    0.0000 C   0  0  0  0  0  0  0  0  0  0  0  0
    8.1099    1.1270    0.0000 C   0  0  0  0  0  0  0  0  0  0  0  0
    7.6974    0.4125    0.0000 O   0  0  0  0  0  0  0  0  0  0  0  0
    6.4599    1.1270    0.0000 C   0  0  0  0  0  0  0  0  0  0  0  0
    5.6349    1.1270    0.0000 C   0  0  0  0  0  0  0  0  0  0  0  0
    5.2224    0.4125    0.0000 C   0  0  0  0  0  0  0  0  0  0  0  0
    5.6349   -0.3020    0.0000 C   0  0  0  0  0  0  0  0  0  0  0  0
    6.4599   -0.3020    0.0000 C   0  0  0  0  0  0  0  0  0  0  0  0
    6.8724    0.4125    0.0000 N   0  0  0  0  0  0  0  0  0  0  0  0
    4.3974    0.4125    0.0000 C   0  0  0  0  0  0  0  0  0  0  0  0
    3.9849   -0.3020    0.0000 C   0  0  0  0  0  0  0  0  0  0  0  0
    3.1599   -0.3020    0.0000 C   0  0  0  0  0  0  0  0  0  0  0  0
    2.7474    0.4125    0.0000 C   0  0  0  0  0  0  0  0  0  0  0  0
    1.9224    0.4125    0.0000 N   0  0  0  0  0  0  0  0  0  0  0  0
    1.5099    1.1270    0.0000 C   0  0  0  0  0  0  0  0  0  0  0  0
    0.6849    1.1270    0.0000 N   0  0  0  0  0  0  0  0  0  0  0  0
    0.2724    1.8414    0.0000 C   0  0  0  0  0  0  0  0  0  0  0  0
    0.6849    2.5559    0.0000 C   0  0  0  0  0  0  0  0  0  0  0  0
    1.5099    2.5559    0.0000 C   0  0  0  0  0  0  0  0  0  0  0  0
    1.9224    1.8414    0.0000 N   0  0  0  0  0  0  0  0  0  0  0  0
    3.1599    1.1270    0.0000 C   0  0  0  0  0  0  0  0  0  0  0  0
    3.9849    1.1270    0.0000 C   0  0  0  0  0  0  0  0  0  0  0  0
    4.3974    1.8414    0.0000 N   0  0  0  0  0  0  0  0  0  0  0  0
    3.9849    2.5559    0.0000 C   0  0  0  0  0  0  0  0  0  0  0  0
    3.1599    2.5559    0.0000 O   0  0  0  0  0  0  0  0  0  0  0  0
  2  1  1  6  0  0  0
  2  3  1  0  0  0  0
  3  4  1  0  0  0  0
  4  5  1  0  0  0  0
  5  6  1  0  0  0  0
  6  7  1  6  0  0  0
  7  8  4  0  0  0  0
  8  9  4  0  0  0  0
  9 10  4  0  0  0  0
 10 11  1  0  0  0  0
 11 12  4  0  0  0  0
 12 13  1  0  0  0  0
 12 14  4  0  0  0  0
 14 15  4  0  0  0  0
 15 16  4  0  0  0  0
 16 17  1  0  0  0  0
 16 18  4  0  0  0  0
 11 18  4  0  0  0  0
 18 19  1  0  0  0  0
 10 20  4  0  0  0  0
 20 21  4  0  0  0  0
  7 21  4  0  0  0  0
 21 22  2  0  0  0  0
  6 23  1  0  0  0  0
 23 24  4  0  0  0  0
 24 25  4  0  0  0  0
 25 26  4  0  0  0  0
 26 27  4  0  0  0  0
 27 28  4  0  0  0  0
 23 28  4  0  0  0  0
 25 29  1  0  0  0  0
 29 30  4  0  0  0  0
 30 31  4  0  0  0  0
 31 32  4  0  0  0  0
 32 33  1  0  0  0  0
 33 34  1  0  0  0  0
 34 35  4  0  0  0  0
 35 36  4  0  0  0  0
 36 37  4  0  0  0  0
 37 38  4  0  0  0  0
 38 39  4  0  0  0  0
 34 39  4  0  0  0  0
 32 40  4  0  0  0  0
 40 41  4  0  0  0  0
 29 41  4  0  0  0  0
 41 42  1  0  0  0  0
 42 43  1  0  0  0  0
  2 43  1  0  0  0  0
 43 44  2  0  0  0  0
M  END
>  <CdId>
358440

>  <Mol Weight>
613.056

>  <Formula>
C33H27ClF2N6O2

>  <cmpd_chemblid>
CHEMBL4111142

>  <std_type>
Ki

>  <std_value>
0.56

>  <std_unit>
nM

>  <target_id>
CHEMBL2016

>  <target_name>
Coagulation factor IX

>  <organism>
Homo sapiens

>  <target_type>
SINGLE PROTEIN

$$$$

  Mrv0541 08052111042D          

 39 41  0  0  1  0            999 V2000
   -8.5737   -4.9500    0.0000 C   0  0  0  0  0  0  0  0  0  0  0  0
   -7.8592   -5.3625    0.0000 O   0  0  0  0  0  0  0  0  0  0  0  0
   -7.1447   -4.9500    0.0000 C   0  0  0  0  0  0  0  0  0  0  0  0
   -7.1447   -4.1250    0.0000 C   0  0  0  0  0  0  0  0  0  0  0  0
   -6.4302   -3.7125    0.0000 C   0  0  0  0  0  0  0  0  0  0  0  0
   -5.7158   -4.1250    0.0000 C   0  0  0  0  0  0  0  0  0  0  0  0
   -5.0013   -3.7125    0.0000 C   0  0  0  0  0  0  0  0  0  0  0  0
   -4.2868   -4.1250    0.0000 C   0  0  0  0  0  0  0  0  0  0  0  0
   -3.5724   -3.7125    0.0000 C   0  0  0  0  0  0  0  0  0  0  0  0
   -3.5724   -2.8875    0.0000 C   0  0  0  0  0  0  0  0  0  0  0  0
   -2.8579   -2.4750    0.0000 C   0  0  0  0  0  0  0  0  0  0  0  0
   -2.1434   -2.8875    0.0000 O   0  0  0  0  0  0  0  0  0  0  0  0
   -2.8579   -1.6500    0.0000 N   0  0  0  0  0  0  0  0  0  0  0  0
   -2.1434   -1.2375    0.0000 C   0  0  2  0  0  0  0  0  0  0  0  0
   -2.1434   -0.4125    0.0000 C   0  0  0  0  0  0  0  0  0  0  0  0
   -1.4289    0.0000    0.0000 O   0  0  0  0  0  0  0  0  0  0  0  0
   -1.4289   -1.6500    0.0000 C   0  0  0  0  0  0  0  0  0  0  0  0
   -1.0164   -0.9355    0.0000 C   0  0  0  0  0  0  0  0  0  0  0  0
   -1.8414   -2.3645    0.0000 C   0  0  0  0  0  0  0  0  0  0  0  0
   -0.7145   -2.0625    0.0000 C   0  0  0  0  0  0  0  0  0  0  0  0
   -4.2868   -2.4750    0.0000 C   0  0  0  0  0  0  0  0  0  0  0  0
   -5.0013   -2.8875    0.0000 C   0  0  0  0  0  0  0  0  0  0  0  0
   -5.7158   -2.4750    0.0000 C   0  0  0  0  0  0  0  0  0  0  0  0
   -6.4302   -2.8875    0.0000 O   0  0  0  0  0  0  0  0  0  0  0  0
   -5.7158   -1.6500    0.0000 O   0  0  0  0  0  0  0  0  0  0  0  0
   -5.7158   -4.9500    0.0000 C   0  0  0  0  0  0  0  0  0  0  0  0
   -5.0013   -5.3625    0.0000 C   0  0  0  0  0  0  0  0  0  0  0  0
   -5.0013   -6.1875    0.0000 O   0  0  0  0  0  0  0  0  0  0  0  0
   -4.2868   -4.9500    0.0000 N   0  0  0  0  0  0  0  0  0  0  0  0
   -3.5724   -5.3625    0.0000 C   0  0  0  0  0  0  0  0  0  0  0  0
   -2.8579   -4.9500    0.0000 C   0  0  0  0  0  0  0  0  0  0  0  0
   -2.1434   -5.3625    0.0000 C   0  0  0  0  0  0  0  0  0  0  0  0
   -2.1434   -6.1875    0.0000 C   0  0  0  0  0  0  0  0  0  0  0  0
   -1.4289   -6.6000    0.0000 C   0  0  0  0  0  0  0  0  0  0  0  0
   -1.4289   -7.4250    0.0000 N   0  0  0  0  0  0  0  0  0  0  0  0
   -0.7145   -6.1875    0.0000 N   0  0  0  0  0  0  0  0  0  0  0  0
   -2.8579   -6.6000    0.0000 C   0  0  0  0  0  0  0  0  0  0  0  0
   -3.5724   -6.1875    0.0000 C   0  0  0  0  0  0  0  0  0  0  0  0
   -6.4302   -5.3625    0.0000 N   0  0  0  0  0  0  0  0  0  0  0  0
  1  2  1  0  0  0  0
  2  3  1  0  0  0  0
  3  4  4  0  0  0  0
  4  5  4  0  0  0  0
  5  6  4  0  0  0  0
  6  7  1  0  0  0  0
  7  8  4  0  0  0  0
  8  9  4  0  0  0  0
  9 10  4  0  0  0  0
 10 11  1  0  0  0  0
 11 12  2  0  0  0  0
 11 13  1  0  0  0  0
 14 13  1  6  0  0  0
 14 15  1  0  0  0  0
 15 16  1  0  0  0  0
 14 17  1  0  0  0  0
 17 18  1  0  0  0  0
 17 19  1  0  0  0  0
 17 20  1  0  0  0  0
 10 21  4  0  0  0  0
 21 22  4  0  0  0  0
  7 22  4  0  0  0  0
 22 23  1  0  0  0  0
 23 24  2  0  0  0  0
 23 25  1  0  0  0  0
  6 26  4  0  0  0  0
 26 27  1  0  0  0  0
 27 28  2  0  0  0  0
 27 29  1  0  0  0  0
 29 30  1  0  0  0  0
 30 31  4  0  0  0  0
 31 32  4  0  0  0  0
 32 33  4  0  0  0  0
 33 34  1  0  0  0  0
 34 35  2  0  0  0  0
 34 36  1  0  0  0  0
 33 37  4  0  0  0  0
 37 38  4  0  0  0  0
 30 38  4  0  0  0  0
 26 39  4  0  0  0  0
  3 39  4  0  0  0  0
M  END
>  <CdId>
358441

>  <Mol Weight>
533.5756

>  <Formula>
C28H31N5O6

>  <cmpd_chemblid>
CHEMBL2417904

>  <std_type>
Ki

>  <std_value>
22.0

>  <std_unit>
nM

>  <target_id>
CHEMBL2016

>  <target_name>
Coagulation factor IX

>  <organism>
Homo sapiens

>  <target_type>
SINGLE PROTEIN

$$$$

  Mrv0541 08052111042D          

 43 47  0  0  1  0            999 V2000
    8.6329   -2.2539    0.0000 C   0  0  0  0  0  0  0  0  0  0  0  0
    8.2204   -1.5395    0.0000 O   0  0  0  0  0  0  0  0  0  0  0  0
    7.3954   -1.5395    0.0000 C   0  0  0  0  0  0  0  0  0  0  0  0
    6.9829   -2.2539    0.0000 O   0  0  0  0  0  0  0  0  0  0  0  0
    6.9829   -0.8250    0.0000 N   0  0  0  0  0  0  0  0  0  0  0  0
    6.1579   -0.8250    0.0000 C   0  0  0  0  0  0  0  0  0  0  0  0
    5.7454   -0.1105    0.0000 C   0  0  0  0  0  0  0  0  0  0  0  0
    4.9204   -0.1105    0.0000 C   0  0  0  0  0  0  0  0  0  0  0  0
    4.5079   -0.8250    0.0000 C   0  0  0  0  0  0  0  0  0  0  0  0
    4.9204   -1.5395    0.0000 C   0  0  0  0  0  0  0  0  0  0  0  0
    5.7454   -1.5395    0.0000 C   0  0  0  0  0  0  0  0  0  0  0  0
    4.5079   -2.2539    0.0000 N   0  0  0  0  0  0  0  0  0  0  0  0
    4.9204   -2.9684    0.0000 C   0  0  0  0  0  0  0  0  0  0  0  0
    5.7454   -2.9684    0.0000 O   0  0  0  0  0  0  0  0  0  0  0  0
    4.5079   -3.6829    0.0000 C   0  0  2  0  0  0  0  0  0  0  0  0
    4.9204   -4.3974    0.0000 C   0  0  0  0  0  0  0  0  0  0  0  0
    3.6829   -3.6829    0.0000 C   0  0  0  0  0  0  0  0  0  0  0  0
    3.2704   -4.3974    0.0000 F   0  0  0  0  0  0  0  0  0  0  0  0
    3.2704   -2.9684    0.0000 C   0  0  0  0  0  0  0  0  0  0  0  0
    2.4454   -2.9684    0.0000 C   0  0  0  0  0  0  0  0  0  0  0  0
    2.0329   -2.2539    0.0000 C   0  0  2  0  0  0  0  0  0  0  0  0
    1.2079   -2.2539    0.0000 N   0  0  0  0  0  0  0  0  0  0  0  0
    0.7954   -2.9684    0.0000 C   0  0  0  0  0  0  0  0  0  0  0  0
   -0.0296   -2.9684    0.0000 C   0  0  0  0  0  0  0  0  0  0  0  0
   -0.4421   -2.2539    0.0000 C   0  0  0  0  0  0  0  0  0  0  0  0
   -1.2671   -2.2539    0.0000 C   0  0  0  0  0  0  0  0  0  0  0  0
   -1.6796   -2.9684    0.0000 C   0  0  0  0  0  0  0  0  0  0  0  0
   -1.2671   -3.6829    0.0000 F   0  0  0  0  0  0  0  0  0  0  0  0
   -2.5046   -2.9684    0.0000 C   0  0  0  0  0  0  0  0  0  0  0  0
   -2.9171   -2.2539    0.0000 C   0  0  0  0  0  0  0  0  0  0  0  0
   -2.5046   -1.5395    0.0000 C   0  0  0  0  0  0  0  0  0  0  0  0
   -2.9171   -0.8250    0.0000 Cl  0  0  0  0  0  0  0  0  0  0  0  0
   -1.6796   -1.5395    0.0000 C   0  0  0  0  0  0  0  0  0  0  0  0
   -1.2671   -0.8250    0.0000 F   0  0  0  0  0  0  0  0  0  0  0  0
   -0.0296   -1.5395    0.0000 C   0  0  0  0  0  0  0  0  0  0  0  0
    0.7954   -1.5395    0.0000 C   0  0  0  0  0  0  0  0  0  0  0  0
    1.2079   -0.8250    0.0000 O   0  0  0  0  0  0  0  0  0  0  0  0
    2.4454   -1.5395    0.0000 C   0  0  0  0  0  0  0  0  0  0  0  0
    3.2704   -1.5395    0.0000 C   0  0  0  0  0  0  0  0  0  0  0  0
    3.6829   -0.8250    0.0000 C   0  0  0  0  0  0  0  0  0  0  0  0
    3.2704   -0.1105    0.0000 C   0  0  0  0  0  0  0  0  0  0  0  0
    2.4454   -0.1105    0.0000 C   0  0  0  0  0  0  0  0  0  0  0  0
    2.0329   -0.8250    0.0000 N   0  0  0  0  0  0  0  0  0  0  0  0
  1  2  1  0  0  0  0
  2  3  1  0  0  0  0
  3  4  2  0  0  0  0
  3  5  1  0  0  0  0
  5  6  1  0  0  0  0
  6  7  4  0  0  0  0
  7  8  4  0  0  0  0
  8  9  4  0  0  0  0
  9 10  4  0  0  0  0
 10 11  4  0  0  0  0
  6 11  4  0  0  0  0
 10 12  1  0  0  0  0
 12 13  1  0  0  0  0
 13 14  2  0  0  0  0
 13 15  1  0  0  0  0
 15 16  1  6  0  0  0
 15 17  1  0  0  0  0
 17 18  1  0  0  0  0
 17 19  1  0  0  0  0
 19 20  1  0  0  0  0
 20 21  1  0  0  0  0
 21 22  1  6  0  0  0
 22 23  1  0  0  0  0
 23 24  1  0  0  0  0
 24 25  1  0  0  0  0
 25 26  1  0  0  0  0
 26 27  4  0  0  0  0
 27 28  1  0  0  0  0
 27 29  4  0  0  0  0
 29 30  4  0  0  0  0
 30 31  4  0  0  0  0
 31 32  1  0  0  0  0
 31 33  4  0  0  0  0
 26 33  4  0  0  0  0
 33 34  1  0  0  0  0
 25 35  2  0  0  0  0
 35 36  1  0  0  0  0
 22 36  1  0  0  0  0
 36 37  2  0  0  0  0
 21 38  1  0  0  0  0
 38 39  4  0  0  0  0
 39 40  4  0  0  0  0
  9 40  1  0  0  0  0
 40 41  4  0  0  0  0
 41 42  4  0  0  0  0
 42 43  4  0  0  0  0
 38 43  4  0  0  0  0
M  END
>  <CdId>
358443

>  <Mol Weight>
613.027

>  <Formula>
C31H28ClF3N4O4

>  <cmpd_chemblid>
CHEMBL4115353

>  <std_type>
Ki

>  <std_value>
0.18

>  <std_unit>
nM

>  <target_id>
CHEMBL2016

>  <target_name>
Coagulation factor IX

>  <organism>
Homo sapiens

>  <target_type>
SINGLE PROTEIN

$$$$

  Mrv0541 08052111042D          

 40 44  0  0  1  0            999 V2000
    0.0000    0.8250    0.0000 C   0  0  0  0  0  0  0  0  0  0  0  0
    0.0000    0.0000    0.0000 O   0  0  0  0  0  0  0  0  0  0  0  0
    0.7145   -0.4125    0.0000 C   0  0  0  0  0  0  0  0  0  0  0  0
    1.4289    0.0000    0.0000 C   0  0  0  0  0  0  0  0  0  0  0  0
    2.1434   -0.4125    0.0000 C   0  0  0  0  0  0  0  0  0  0  0  0
    2.8579    0.0000    0.0000 C   0  0  0  0  0  0  0  0  0  0  0  0
    2.8579    0.8250    0.0000 N   0  0  0  0  0  0  0  0  0  0  0  0
    3.5724   -0.4125    0.0000 N   0  0  0  0  0  0  0  0  0  0  0  0
    3.5724   -1.2375    0.0000 C   0  0  0  0  0  0  0  0  0  0  0  0
    2.8579   -1.6500    0.0000 C   0  0  0  0  0  0  0  0  0  0  0  0
    2.1434   -1.2375    0.0000 C   0  0  0  0  0  0  0  0  0  0  0  0
    1.4289   -1.6500    0.0000 C   0  0  0  0  0  0  0  0  0  0  0  0
    0.7145   -1.2375    0.0000 C   0  0  0  0  0  0  0  0  0  0  0  0
    0.0000   -1.6500    0.0000 C   0  0  0  0  0  0  0  0  0  0  0  0
    0.0000   -2.4750    0.0000 C   0  0  2  0  0  0  0  0  0  0  0  0
   -0.7145   -2.8875    0.0000 C   0  0  0  0  0  0  0  0  0  0  0  0
   -0.7145   -3.7125    0.0000 O   0  0  0  0  0  0  0  0  0  0  0  0
   -1.4289   -2.4750    0.0000 O   0  0  0  0  0  0  0  0  0  0  0  0
    0.7145   -2.8875    0.0000 N   0  0  0  0  0  0  0  0  0  0  0  0
    1.4681   -2.5519    0.0000 C   0  0  0  0  0  0  0  0  0  0  0  0
    2.0202   -3.1650    0.0000 C   0  0  0  0  0  0  0  0  0  0  0  0
    1.6077   -3.8795    0.0000 C   0  0  2  0  0  0  0  0  0  0  0  0
    1.9432   -4.6332    0.0000 N   0  0  0  0  0  0  0  0  0  0  0  0
    2.7637   -4.7194    0.0000 S   0  0  0  0  0  0  0  0  0  0  0  0
    2.6775   -5.5399    0.0000 O   0  0  0  0  0  0  0  0  0  0  0  0
    2.8500   -3.8989    0.0000 O   0  0  0  0  0  0  0  0  0  0  0  0
    3.5842   -4.8057    0.0000 C   0  0  0  0  0  0  0  0  0  0  0  0
    4.1362   -4.1926    0.0000 C   0  0  0  0  0  0  0  0  0  0  0  0
    4.8899   -4.5281    0.0000 N   0  0  0  0  0  0  0  0  0  0  0  0
    4.8037   -5.3486    0.0000 C   0  0  0  0  0  0  0  0  0  0  0  0
    5.4168   -5.9006    0.0000 N   0  0  0  0  0  0  0  0  0  0  0  0
    6.2237   -5.7291    0.0000 C   0  0  0  0  0  0  0  0  0  0  0  0
    6.6362   -6.4436    0.0000 C   0  0  0  0  0  0  0  0  0  0  0  0
    6.0842   -7.0567    0.0000 C   0  0  0  0  0  0  0  0  0  0  0  0
    6.7516   -7.5416    0.0000 F   0  0  0  0  0  0  0  0  0  0  0  0
    5.6717   -7.7711    0.0000 F   0  0  0  0  0  0  0  0  0  0  0  0
    5.3305   -6.7211    0.0000 C   0  0  0  0  0  0  0  0  0  0  0  0
    3.9967   -5.5201    0.0000 S   0  0  0  0  0  0  0  0  0  0  0  0
    0.8007   -3.7080    0.0000 C   0  0  0  0  0  0  0  0  0  0  0  0
    0.1876   -4.2600    0.0000 O   0  0  0  0  0  0  0  0  0  0  0  0
  1  2  1  0  0  0  0
  2  3  1  0  0  0  0
  3  4  4  0  0  0  0
  4  5  4  0  0  0  0
  5  6  4  0  0  0  0
  6  7  1  0  0  0  0
  6  8  4  0  0  0  0
  8  9  4  0  0  0  0
  9 10  4  0  0  0  0
 10 11  4  0  0  0  0
  5 11  4  0  0  0  0
 11 12  4  0  0  0  0
 12 13  4  0  0  0  0
  3 13  4  0  0  0  0
 13 14  1  0  0  0  0
 14 15  1  0  0  0  0
 15 16  1  0  0  0  0
 16 17  2  0  0  0  0
 16 18  1  0  0  0  0
 15 19  1  1  0  0  0
 19 20  1  0  0  0  0
 20 21  1  0  0  0  0
 21 22  1  0  0  0  0
 22 23  1  6  0  0  0
 23 24  1  0  0  0  0
 24 25  2  0  0  0  0
 24 26  2  0  0  0  0
 24 27  1  0  0  0  0
 27 28  4  0  0  0  0
 28 29  4  0  0  0  0
 29 30  4  0  0  0  0
 30 31  1  0  0  0  0
 31 32  1  0  0  0  0
 32 33  1  0  0  0  0
 33 34  1  0  0  0  0
 34 35  1  0  0  0  0
 34 36  1  0  0  0  0
 34 37  1  0  0  0  0
 31 37  1  0  0  0  0
 30 38  4  0  0  0  0
 27 38  4  0  0  0  0
 22 39  1  0  0  0  0
 19 39  1  0  0  0  0
 39 40  2  0  0  0  0
M  END
>  <CdId>
358446

>  <Mol Weight>
596.627

>  <Formula>
C24H26F2N6O6S2

>  <cmpd_chemblid>
CHEMBL3970200

>  <std_type>
Ki

>  <std_value>
35.0

>  <std_unit>
nM

>  <target_id>
CHEMBL2016

>  <target_name>
Coagulation factor IX

>  <organism>
Homo sapiens

>  <target_type>
SINGLE PROTEIN

$$$$

  Mrv0541 08052111042D          

 32 35  0  0  0  0            999 V2000
   -5.3649   -1.3480    0.0000 N   0  0  0  0  0  0  0  0  0  0  0  0
   -4.9524   -2.0625    0.0000 C   0  0  0  0  0  0  0  0  0  0  0  0
   -5.3649   -2.7770    0.0000 N   0  0  0  0  0  0  0  0  0  0  0  0
   -4.1274   -2.0625    0.0000 C   0  0  0  0  0  0  0  0  0  0  0  0
   -3.6425   -1.3951    0.0000 C   0  0  0  0  0  0  0  0  0  0  0  0
   -2.8579   -1.6500    0.0000 C   0  0  0  0  0  0  0  0  0  0  0  0
   -2.1434   -1.2375    0.0000 C   0  0  0  0  0  0  0  0  0  0  0  0
   -2.1434   -0.4125    0.0000 O   0  0  0  0  0  0  0  0  0  0  0  0
   -1.4289   -0.0000    0.0000 C   0  0  0  0  0  0  0  0  0  0  0  0
   -0.7145   -0.4125    0.0000 C   0  0  0  0  0  0  0  0  0  0  0  0
    0.0000   -0.0000    0.0000 O   0  0  0  0  0  0  0  0  0  0  0  0
    0.7145   -0.4125    0.0000 C   0  0  0  0  0  0  0  0  0  0  0  0
    0.7145   -1.2375    0.0000 O   0  0  0  0  0  0  0  0  0  0  0  0
    1.4289   -0.0000    0.0000 N   0  0  0  0  0  0  0  0  0  0  0  0
    2.1434   -0.4125    0.0000 C   0  0  0  0  0  0  0  0  0  0  0  0
    2.8579   -0.0000    0.0000 C   0  0  0  0  0  0  0  0  0  0  0  0
    3.5724   -0.4125    0.0000 C   0  0  0  0  0  0  0  0  0  0  0  0
    3.5724   -1.2375    0.0000 C   0  0  0  0  0  0  0  0  0  0  0  0
    4.2868   -1.6500    0.0000 F   0  0  0  0  0  0  0  0  0  0  0  0
    2.8579   -1.6500    0.0000 C   0  0  0  0  0  0  0  0  0  0  0  0
    2.1434   -1.2375    0.0000 C   0  0  0  0  0  0  0  0  0  0  0  0
   -1.4289    0.8250    0.0000 C   0  0  0  0  0  0  0  0  0  0  0  0
   -2.1434    1.2375    0.0000 C   0  0  0  0  0  0  0  0  0  0  0  0
   -2.1434    2.0625    0.0000 C   0  0  0  0  0  0  0  0  0  0  0  0
   -1.4289    2.4750    0.0000 C   0  0  0  0  0  0  0  0  0  0  0  0
   -0.7145    2.0625    0.0000 C   0  0  0  0  0  0  0  0  0  0  0  0
   -0.7145    1.2375    0.0000 C   0  0  0  0  0  0  0  0  0  0  0  0
   -1.4289   -1.6500    0.0000 C   0  0  0  0  0  0  0  0  0  0  0  0
   -1.4289   -2.4750    0.0000 C   0  0  0  0  0  0  0  0  0  0  0  0
   -2.1434   -2.8875    0.0000 C   0  0  0  0  0  0  0  0  0  0  0  0
   -2.8579   -2.4750    0.0000 C   0  0  0  0  0  0  0  0  0  0  0  0
   -3.6425   -2.7299    0.0000 S   0  0  0  0  0  0  0  0  0  0  0  0
  1  2  2  0  0  0  0
  2  3  1  0  0  0  0
  2  4  1  0  0  0  0
  4  5  4  0  0  0  0
  5  6  4  0  0  0  0
  6  7  4  0  0  0  0
  7  8  1  0  0  0  0
  8  9  1  0  0  0  0
  9 10  1  0  0  0  0
 10 11  1  0  0  0  0
 11 12  1  0  0  0  0
 12 13  2  0  0  0  0
 12 14  1  0  0  0  0
 14 15  1  0  0  0  0
 15 16  4  0  0  0  0
 16 17  4  0  0  0  0
 17 18  4  0  0  0  0
 18 19  1  0  0  0  0
 18 20  4  0  0  0  0
 20 21  4  0  0  0  0
 15 21  4  0  0  0  0
  9 22  1  0  0  0  0
 22 23  4  0  0  0  0
 23 24  4  0  0  0  0
 24 25  4  0  0  0  0
 25 26  4  0  0  0  0
 26 27  4  0  0  0  0
 22 27  4  0  0  0  0
  7 28  4  0  0  0  0
 28 29  4  0  0  0  0
 29 30  4  0  0  0  0
 30 31  4  0  0  0  0
  6 31  4  0  0  0  0
 31 32  4  0  0  0  0
  4 32  4  0  0  0  0
M  END
>  <CdId>
358447

>  <Mol Weight>
449.497

>  <Formula>
C24H20FN3O3S

>  <cmpd_chemblid>
CHEMBL597579

>  <std_type>
Ki

>  <std_value>
8.0

>  <std_unit>
nM

>  <target_id>
CHEMBL2016

>  <target_name>
Coagulation factor IX

>  <organism>
Homo sapiens

>  <target_type>
SINGLE PROTEIN

$$$$

  Mrv0541 08052111042D          

 35 39  0  0  1  0            999 V2000
    2.7845    0.6979    0.0000 C   0  0  0  0  0  0  0  0  0  0  0  0
    2.0701    1.1104    0.0000 C   0  0  0  0  0  0  0  0  0  0  0  0
    1.3556    0.6979    0.0000 C   0  0  0  0  0  0  0  0  0  0  0  0
    0.6411    1.1104    0.0000 C   0  0  0  0  0  0  0  0  0  0  0  0
   -0.1435    0.8555    0.0000 N   0  0  0  0  0  0  0  0  0  0  0  0
   -0.6284    1.5229    0.0000 C   0  0  0  0  0  0  0  0  0  0  0  0
   -1.4534    1.5229    0.0000 C   0  0  1  0  0  0  0  0  0  0  0  0
   -1.8659    0.8085    0.0000 C   0  0  0  0  0  0  0  0  0  0  0  0
   -2.6909    0.8085    0.0000 N   0  0  0  0  0  0  0  0  0  0  0  0
   -3.1034    0.0940    0.0000 C   0  0  0  0  0  0  0  0  0  0  0  0
   -2.6909   -0.6205    0.0000 O   0  0  0  0  0  0  0  0  0  0  0  0
   -3.9284    0.0940    0.0000 C   0  0  0  0  0  0  0  0  0  0  0  0
   -4.3409   -0.6205    0.0000 C   0  0  0  0  0  0  0  0  0  0  0  0
   -3.9284   -1.3349    0.0000 Cl  0  0  0  0  0  0  0  0  0  0  0  0
   -5.1659   -0.6205    0.0000 C   0  0  0  0  0  0  0  0  0  0  0  0
   -5.5784    0.0940    0.0000 C   0  0  0  0  0  0  0  0  0  0  0  0
   -6.4034    0.0940    0.0000 N   0  0  0  0  0  0  0  0  0  0  0  0
   -6.8884   -0.5734    0.0000 C   0  0  0  0  0  0  0  0  0  0  0  0
   -7.6730   -0.3185    0.0000 N   0  0  0  0  0  0  0  0  0  0  0  0
   -7.6730    0.5065    0.0000 N   0  0  0  0  0  0  0  0  0  0  0  0
   -6.8884    0.7614    0.0000 C   0  0  0  0  0  0  0  0  0  0  0  0
   -5.1659    0.8085    0.0000 C   0  0  0  0  0  0  0  0  0  0  0  0
   -4.3409    0.8085    0.0000 C   0  0  0  0  0  0  0  0  0  0  0  0
   -3.9284    1.5229    0.0000 Cl  0  0  0  0  0  0  0  0  0  0  0  0
   -1.8659    2.2374    0.0000 C   0  0  0  0  0  0  0  0  0  0  0  0
   -2.6909    2.2374    0.0000 C   0  0  0  0  0  0  0  0  0  0  0  0
   -3.1034    2.9519    0.0000 C   0  0  0  0  0  0  0  0  0  0  0  0
   -2.6909    3.6664    0.0000 C   0  0  0  0  0  0  0  0  0  0  0  0
   -1.8659    3.6664    0.0000 C   0  0  0  0  0  0  0  0  0  0  0  0
   -1.4534    2.9519    0.0000 C   0  0  0  0  0  0  0  0  0  0  0  0
   -0.1435    2.1904    0.0000 N   0  0  0  0  0  0  0  0  0  0  0  0
    0.6411    1.9354    0.0000 C   0  0  0  0  0  0  0  0  0  0  0  0
    1.3556    2.3479    0.0000 C   0  0  0  0  0  0  0  0  0  0  0  0
    2.0701    1.9354    0.0000 C   0  0  0  0  0  0  0  0  0  0  0  0
    2.7845    2.3479    0.0000 C   0  0  0  0  0  0  0  0  0  0  0  0
  1  2  1  0  0  0  0
  2  3  4  0  0  0  0
  3  4  4  0  0  0  0
  4  5  4  0  0  0  0
  5  6  4  0  0  0  0
  6  7  1  0  0  0  0
  7  8  1  0  0  0  0
  8  9  1  0  0  0  0
  9 10  1  0  0  0  0
 10 11  2  0  0  0  0
 10 12  1  0  0  0  0
 12 13  4  0  0  0  0
 13 14  1  0  0  0  0
 13 15  4  0  0  0  0
 15 16  4  0  0  0  0
 16 17  1  0  0  0  0
 17 18  4  0  0  0  0
 18 19  4  0  0  0  0
 19 20  4  0  0  0  0
 20 21  4  0  0  0  0
 17 21  4  0  0  0  0
 16 22  4  0  0  0  0
 22 23  4  0  0  0  0
 12 23  4  0  0  0  0
 23 24  1  0  0  0  0
  7 25  1  1  0  0  0
 25 26  4  0  0  0  0
 26 27  4  0  0  0  0
 27 28  4  0  0  0  0
 28 29  4  0  0  0  0
 29 30  4  0  0  0  0
 25 30  4  0  0  0  0
  6 31  4  0  0  0  0
 31 32  4  0  0  0  0
  4 32  4  0  0  0  0
 32 33  4  0  0  0  0
 33 34  4  0  0  0  0
  2 34  4  0  0  0  0
 34 35  1  0  0  0  0
M  STY  1   1 DAT
M  SAL   1  1  31
M  SDT   1 MRV_IMPLICIT_H                                        
M  SDD   1     0.0000    0.0000    DR    ALL  0       0  
M  SED   1 IMPL_H1
M  END
>  <CdId>
358450

>  <Mol Weight>
505.398

>  <Formula>
C26H22Cl2N6O

>  <cmpd_chemblid>
CHEMBL3627864

>  <std_type>
Ki

>  <std_value>
3.6

>  <std_unit>
nM

>  <target_id>
CHEMBL2016

>  <target_name>
Coagulation factor IX

>  <organism>
Homo sapiens

>  <target_type>
SINGLE PROTEIN

$$$$

  Mrv0541 08052111042D          

 38 42  0  0  1  0            999 V2000
    3.9849    3.9849    0.0000 C   0  0  0  0  0  0  0  0  0  0  0  0
    4.3974    3.2704    0.0000 C   0  0  2  0  0  0  0  0  0  0  0  0
    5.2224    3.2704    0.0000 C   0  0  0  0  0  0  0  0  0  0  0  0
    5.6349    2.5559    0.0000 C   0  0  0  0  0  0  0  0  0  0  0  0
    6.4599    2.5559    0.0000 C   0  0  0  0  0  0  0  0  0  0  0  0
    6.8724    1.8414    0.0000 C   0  0  2  0  0  0  0  0  0  0  0  0
    7.6974    1.8414    0.0000 N   0  0  0  0  0  0  0  0  0  0  0  0
    8.1099    2.5559    0.0000 C   0  0  0  0  0  0  0  0  0  0  0  0
    8.9349    2.5559    0.0000 C   0  0  0  0  0  0  0  0  0  0  0  0
    9.3474    1.8414    0.0000 C   0  0  0  0  0  0  0  0  0  0  0  0
   10.1724    1.8414    0.0000 C   0  0  0  0  0  0  0  0  0  0  0  0
   10.5849    2.5559    0.0000 C   0  0  0  0  0  0  0  0  0  0  0  0
   10.1724    3.2704    0.0000 F   0  0  0  0  0  0  0  0  0  0  0  0
   11.4099    2.5559    0.0000 C   0  0  0  0  0  0  0  0  0  0  0  0
   11.8224    1.8414    0.0000 C   0  0  0  0  0  0  0  0  0  0  0  0
   11.4099    1.1270    0.0000 C   0  0  0  0  0  0  0  0  0  0  0  0
   11.8224    0.4125    0.0000 Cl  0  0  0  0  0  0  0  0  0  0  0  0
   10.5849    1.1270    0.0000 C   0  0  0  0  0  0  0  0  0  0  0  0
   10.1724    0.4125    0.0000 F   0  0  0  0  0  0  0  0  0  0  0  0
    8.9349    1.1270    0.0000 C   0  0  0  0  0  0  0  0  0  0  0  0
    8.1099    1.1270    0.0000 C   0  0  0  0  0  0  0  0  0  0  0  0
    7.6974    0.4125    0.0000 O   0  0  0  0  0  0  0  0  0  0  0  0
    6.4599    1.1270    0.0000 C   0  0  0  0  0  0  0  0  0  0  0  0
    5.6349    1.1270    0.0000 C   0  0  0  0  0  0  0  0  0  0  0  0
    5.2224    0.4125    0.0000 C   0  0  0  0  0  0  0  0  0  0  0  0
    5.6349   -0.3020    0.0000 C   0  0  0  0  0  0  0  0  0  0  0  0
    6.4599   -0.3020    0.0000 C   0  0  0  0  0  0  0  0  0  0  0  0
    6.8724    0.4125    0.0000 N   0  0  0  0  0  0  0  0  0  0  0  0
    4.3974    0.4125    0.0000 C   0  0  0  0  0  0  0  0  0  0  0  0
    3.9849   -0.3020    0.0000 C   0  0  0  0  0  0  0  0  0  0  0  0
    4.3974   -1.0164    0.0000 F   0  0  0  0  0  0  0  0  0  0  0  0
    3.1599   -0.3020    0.0000 C   0  0  0  0  0  0  0  0  0  0  0  0
    2.7474    0.4125    0.0000 C   0  0  0  0  0  0  0  0  0  0  0  0
    3.1599    1.1270    0.0000 C   0  0  0  0  0  0  0  0  0  0  0  0
    3.9849    1.1270    0.0000 C   0  0  0  0  0  0  0  0  0  0  0  0
    4.3974    1.8414    0.0000 N   0  0  0  0  0  0  0  0  0  0  0  0
    3.9849    2.5559    0.0000 C   0  0  0  0  0  0  0  0  0  0  0  0
    3.1599    2.5559    0.0000 O   0  0  0  0  0  0  0  0  0  0  0  0
  2  1  1  6  0  0  0
  2  3  1  0  0  0  0
  3  4  1  0  0  0  0
  4  5  1  0  0  0  0
  5  6  1  0  0  0  0
  6  7  1  6  0  0  0
  7  8  1  0  0  0  0
  8  9  1  0  0  0  0
  9 10  1  0  0  0  0
 10 11  1  0  0  0  0
 11 12  4  0  0  0  0
 12 13  1  0  0  0  0
 12 14  4  0  0  0  0
 14 15  4  0  0  0  0
 15 16  4  0  0  0  0
 16 17  1  0  0  0  0
 16 18  4  0  0  0  0
 11 18  4  0  0  0  0
 18 19  1  0  0  0  0
 10 20  2  0  0  0  0
 20 21  1  0  0  0  0
  7 21  1  0  0  0  0
 21 22  2  0  0  0  0
  6 23  1  0  0  0  0
 23 24  4  0  0  0  0
 24 25  4  0  0  0  0
 25 26  4  0  0  0  0
 26 27  4  0  0  0  0
 27 28  4  0  0  0  0
 23 28  4  0  0  0  0
 25 29  1  0  0  0  0
 29 30  4  0  0  0  0
 30 31  1  0  0  0  0
 30 32  4  0  0  0  0
 32 33  4  0  0  0  0
 33 34  4  0  0  0  0
 34 35  4  0  0  0  0
 29 35  4  0  0  0  0
 35 36  1  0  0  0  0
 36 37  1  0  0  0  0
  2 37  1  0  0  0  0
 37 38  2  0  0  0  0
M  END
>  <CdId>
358451

>  <Mol Weight>
539.976

>  <Formula>
C29H25ClF3N3O2

>  <cmpd_chemblid>
CHEMBL4109563

>  <std_type>
Ki

>  <std_value>
13.55

>  <std_unit>
nM

>  <target_id>
CHEMBL2016

>  <target_name>
Coagulation factor IX

>  <organism>
Homo sapiens

>  <target_type>
SINGLE PROTEIN

$$$$

  Mrv0541 08052111042D          

 45 49  0  0  1  0            999 V2000
    8.6329   -2.2539    0.0000 C   0  0  0  0  0  0  0  0  0  0  0  0
    8.2204   -1.5395    0.0000 O   0  0  0  0  0  0  0  0  0  0  0  0
    7.3954   -1.5395    0.0000 C   0  0  0  0  0  0  0  0  0  0  0  0
    6.9829   -2.2539    0.0000 O   0  0  0  0  0  0  0  0  0  0  0  0
    6.9829   -0.8250    0.0000 N   0  0  0  0  0  0  0  0  0  0  0  0
    6.1579   -0.8250    0.0000 C   0  0  0  0  0  0  0  0  0  0  0  0
    5.7454   -0.1105    0.0000 C   0  0  0  0  0  0  0  0  0  0  0  0
    4.9204   -0.1105    0.0000 C   0  0  0  0  0  0  0  0  0  0  0  0
    4.5079   -0.8250    0.0000 C   0  0  0  0  0  0  0  0  0  0  0  0
    4.9204   -1.5395    0.0000 C   0  0  0  0  0  0  0  0  0  0  0  0
    5.7454   -1.5395    0.0000 C   0  0  0  0  0  0  0  0  0  0  0  0
    4.5079   -2.2539    0.0000 N   0  0  0  0  0  0  0  0  0  0  0  0
    4.9204   -2.9684    0.0000 C   0  0  0  0  0  0  0  0  0  0  0  0
    5.7454   -2.9684    0.0000 O   0  0  0  0  0  0  0  0  0  0  0  0
    4.5079   -3.6829    0.0000 C   0  0  2  0  0  0  0  0  0  0  0  0
    4.9204   -4.3974    0.0000 C   0  0  0  0  0  0  0  0  0  0  0  0
    3.6829   -3.6829    0.0000 C   0  0  0  0  0  0  0  0  0  0  0  0
    3.2704   -2.9684    0.0000 C   0  0  0  0  0  0  0  0  0  0  0  0
    2.4454   -2.9684    0.0000 C   0  0  0  0  0  0  0  0  0  0  0  0
    2.0329   -2.2539    0.0000 C   0  0  2  0  0  0  0  0  0  0  0  0
    1.2079   -2.2539    0.0000 N   0  0  0  0  0  0  0  0  0  0  0  0
    0.7954   -2.9684    0.0000 C   0  0  0  0  0  0  0  0  0  0  0  0
   -0.0296   -2.9684    0.0000 C   0  0  0  0  0  0  0  0  0  0  0  0
   -0.4421   -2.2539    0.0000 C   0  0  0  0  0  0  0  0  0  0  0  0
   -1.2671   -2.2539    0.0000 C   0  0  0  0  0  0  0  0  0  0  0  0
   -1.6796   -2.9684    0.0000 C   0  0  0  0  0  0  0  0  0  0  0  0
   -1.2671   -3.6829    0.0000 O   0  0  0  0  0  0  0  0  0  0  0  0
   -1.6796   -4.3974    0.0000 C   0  0  0  0  0  0  0  0  0  0  0  0
   -2.5046   -4.3974    0.0000 F   0  0  0  0  0  0  0  0  0  0  0  0
   -1.2671   -5.1118    0.0000 F   0  0  0  0  0  0  0  0  0  0  0  0
   -2.5046   -2.9684    0.0000 C   0  0  0  0  0  0  0  0  0  0  0  0
   -2.9171   -2.2539    0.0000 C   0  0  0  0  0  0  0  0  0  0  0  0
   -2.5046   -1.5395    0.0000 C   0  0  0  0  0  0  0  0  0  0  0  0
   -2.9171   -0.8250    0.0000 Cl  0  0  0  0  0  0  0  0  0  0  0  0
   -1.6796   -1.5395    0.0000 C   0  0  0  0  0  0  0  0  0  0  0  0
   -1.2671   -0.8250    0.0000 F   0  0  0  0  0  0  0  0  0  0  0  0
   -0.0296   -1.5395    0.0000 C   0  0  0  0  0  0  0  0  0  0  0  0
    0.7954   -1.5395    0.0000 C   0  0  0  0  0  0  0  0  0  0  0  0
    1.2079   -0.8250    0.0000 O   0  0  0  0  0  0  0  0  0  0  0  0
    2.4454   -1.5395    0.0000 C   0  0  0  0  0  0  0  0  0  0  0  0
    2.0329   -0.8250    0.0000 C   0  0  0  0  0  0  0  0  0  0  0  0
    2.4454   -0.1105    0.0000 C   0  0  0  0  0  0  0  0  0  0  0  0
    3.2704   -0.1105    0.0000 N   0  0  0  0  0  0  0  0  0  0  0  0
    3.6829   -0.8250    0.0000 C   0  0  0  0  0  0  0  0  0  0  0  0
    3.2704   -1.5395    0.0000 C   0  0  0  0  0  0  0  0  0  0  0  0
  1  2  1  0  0  0  0
  2  3  1  0  0  0  0
  3  4  2  0  0  0  0
  3  5  1  0  0  0  0
  5  6  1  0  0  0  0
  6  7  4  0  0  0  0
  7  8  4  0  0  0  0
  8  9  4  0  0  0  0
  9 10  4  0  0  0  0
 10 11  4  0  0  0  0
  6 11  4  0  0  0  0
 10 12  1  0  0  0  0
 12 13  1  0  0  0  0
 13 14  2  0  0  0  0
 13 15  1  0  0  0  0
 15 16  1  6  0  0  0
 15 17  1  0  0  0  0
 17 18  1  0  0  0  0
 18 19  1  0  0  0  0
 19 20  1  0  0  0  0
 20 21  1  6  0  0  0
 21 22  1  0  0  0  0
 22 23  1  0  0  0  0
 23 24  1  0  0  0  0
 24 25  1  0  0  0  0
 25 26  4  0  0  0  0
 26 27  1  0  0  0  0
 27 28  1  0  0  0  0
 28 29  1  0  0  0  0
 28 30  1  0  0  0  0
 26 31  4  0  0  0  0
 31 32  4  0  0  0  0
 32 33  4  0  0  0  0
 33 34  1  0  0  0  0
 33 35  4  0  0  0  0
 25 35  4  0  0  0  0
 35 36  1  0  0  0  0
 24 37  2  0  0  0  0
 37 38  1  0  0  0  0
 21 38  1  0  0  0  0
 38 39  2  0  0  0  0
 20 40  1  0  0  0  0
 40 41  4  0  0  0  0
 41 42  4  0  0  0  0
 42 43  4  0  0  0  0
 43 44  4  0  0  0  0
  9 44  1  0  0  0  0
 44 45  4  0  0  0  0
 40 45  4  0  0  0  0
M  END
>  <CdId>
358452

>  <Mol Weight>
643.053

>  <Formula>
C32H30ClF3N4O5

>  <cmpd_chemblid>
CHEMBL4110926

>  <std_type>
Ki

>  <std_value>
0.04

>  <std_unit>
nM

>  <target_id>
CHEMBL2016

>  <target_name>
Coagulation factor IX

>  <organism>
Homo sapiens

>  <target_type>
SINGLE PROTEIN

$$$$

  Mrv0541 08052111042D          

 31 35  0  0  0  0            999 V2000
   -0.3025   -0.4039    0.0000 C   0  0  0  0  0  0  0  0  0  0  0  0
   -0.0476   -1.1885    0.0000 C   0  0  0  0  0  0  0  0  0  0  0  0
   -0.5996   -1.8016    0.0000 C   0  0  0  0  0  0  0  0  0  0  0  0
   -0.3446   -2.5862    0.0000 C   0  0  0  0  0  0  0  0  0  0  0  0
    0.4623   -2.7578    0.0000 C   0  0  0  0  0  0  0  0  0  0  0  0
    0.7173   -3.5424    0.0000 O   0  0  0  0  0  0  0  0  0  0  0  0
    1.0144   -2.1447    0.0000 C   0  0  0  0  0  0  0  0  0  0  0  0
    1.8394   -2.1447    0.0000 C   0  0  0  0  0  0  0  0  0  0  0  0
    2.0943   -1.3601    0.0000 C   0  0  0  0  0  0  0  0  0  0  0  0
    1.4269   -0.8751    0.0000 N   0  0  0  0  0  0  0  0  0  0  0  0
    0.7594   -1.3601    0.0000 N   0  0  0  0  0  0  0  0  0  0  0  0
    2.9013   -1.1885    0.0000 C   0  0  0  0  0  0  0  0  0  0  0  0
    3.4533   -1.8016    0.0000 C   0  0  0  0  0  0  0  0  0  0  0  0
    3.1984   -2.5862    0.0000 C   0  0  0  0  0  0  0  0  0  0  0  0
    4.0153   -2.7011    0.0000 C   0  0  0  0  0  0  0  0  0  0  0  0
    3.2272   -3.4107    0.0000 N   0  0  0  0  0  0  0  0  0  0  0  0
    3.9556   -3.7981    0.0000 C   0  0  0  0  0  0  0  0  0  0  0  0
    4.6552   -3.3609    0.0000 O   0  0  0  0  0  0  0  0  0  0  0  0
    3.9844   -4.6226    0.0000 C   0  0  0  0  0  0  0  0  0  0  0  0
    4.7128   -5.0099    0.0000 C   0  0  0  0  0  0  0  0  0  0  0  0
    4.7416   -5.8344    0.0000 C   0  0  0  0  0  0  0  0  0  0  0  0
    4.0420   -6.2715    0.0000 C   0  0  0  0  0  0  0  0  0  0  0  0
    4.0708   -7.0960    0.0000 N   0  0  0  0  0  0  0  0  0  0  0  0
    4.7547   -7.5574    0.0000 C   0  0  0  0  0  0  0  0  0  0  0  0
    4.5273   -8.3504    0.0000 C   0  0  0  0  0  0  0  0  0  0  0  0
    3.7028   -8.3792    0.0000 N   0  0  0  0  0  0  0  0  0  0  0  0
    3.4206   -7.6040    0.0000 N   0  0  0  0  0  0  0  0  0  0  0  0
    3.3135   -5.8842    0.0000 C   0  0  0  0  0  0  0  0  0  0  0  0
    3.2847   -5.0597    0.0000 C   0  0  0  0  0  0  0  0  0  0  0  0
    2.5563   -4.6724    0.0000 Cl  0  0  0  0  0  0  0  0  0  0  0  0
    2.3914   -2.7578    0.0000 C   0  0  0  0  0  0  0  0  0  0  0  0
  1  2  1  0  0  0  0
  2  3  4  0  0  0  0
  3  4  4  0  0  0  0
  4  5  4  0  0  0  0
  5  6  1  0  0  0  0
  5  7  4  0  0  0  0
  7  8  4  0  0  0  0
  8  9  4  0  0  0  0
  9 10  4  0  0  0  0
 10 11  4  0  0  0  0
  2 11  4  0  0  0  0
  7 11  4  0  0  0  0
  9 12  1  0  0  0  0
 12 13  1  0  0  0  0
 13 14  1  0  0  0  0
 14 15  1  0  0  0  0
 14 16  1  0  0  0  0
 16 17  1  0  0  0  0
 17 18  2  0  0  0  0
 17 19  1  0  0  0  0
 19 20  4  0  0  0  0
 20 21  4  0  0  0  0
 21 22  4  0  0  0  0
 22 23  1  0  0  0  0
 23 24  4  0  0  0  0
 24 25  4  0  0  0  0
 25 26  4  0  0  0  0
 26 27  4  0  0  0  0
 23 27  4  0  0  0  0
 22 28  4  0  0  0  0
 28 29  4  0  0  0  0
 19 29  4  0  0  0  0
 29 30  1  0  0  0  0
 14 31  1  0  0  0  0
  8 31  1  0  0  0  0
M  END
>  <CdId>
358453

>  <Mol Weight>
436.894

>  <Formula>
C22H21ClN6O2

>  <cmpd_chemblid>
CHEMBL3423051

>  <std_type>
Ki

>  <std_value>
937.0

>  <std_unit>
nM

>  <target_id>
CHEMBL2016

>  <target_name>
Coagulation factor IX

>  <organism>
Homo sapiens

>  <target_type>
SINGLE PROTEIN

$$$$

  Mrv0541 08052111042D          

 38 42  0  0  0  0            999 V2000
    4.2010   -5.1401    0.0000 N   0  0  0  0  0  0  0  0  0  0  0  0
    3.3760   -5.1401    0.0000 C   0  0  0  0  0  0  0  0  0  0  0  0
    2.9635   -4.4256    0.0000 N   0  0  0  0  0  0  0  0  0  0  0  0
    2.9635   -5.8546    0.0000 C   0  0  0  0  0  0  0  0  0  0  0  0
    3.3760   -6.5690    0.0000 C   0  0  0  0  0  0  0  0  0  0  0  0
    2.9635   -7.2835    0.0000 C   0  0  0  0  0  0  0  0  0  0  0  0
    2.1385   -7.2835    0.0000 C   0  0  0  0  0  0  0  0  0  0  0  0
    1.7260   -6.5690    0.0000 C   0  0  0  0  0  0  0  0  0  0  0  0
    0.9010   -6.5690    0.0000 N   0  0  0  0  0  0  0  0  0  0  0  0
    0.4161   -7.2365    0.0000 N   0  0  0  0  0  0  0  0  0  0  0  0
   -0.3686   -6.9815    0.0000 C   0  0  0  0  0  0  0  0  0  0  0  0
   -1.0360   -7.4664    0.0000 C   0  0  0  0  0  0  0  0  0  0  0  0
   -1.7034   -7.9514    0.0000 F   0  0  0  0  0  0  0  0  0  0  0  0
   -1.5209   -6.7990    0.0000 F   0  0  0  0  0  0  0  0  0  0  0  0
   -0.5511   -8.1339    0.0000 F   0  0  0  0  0  0  0  0  0  0  0  0
   -0.3686   -6.1565    0.0000 C   0  0  0  0  0  0  0  0  0  0  0  0
    0.4161   -5.9016    0.0000 C   0  0  0  0  0  0  0  0  0  0  0  0
    0.6710   -5.1170    0.0000 C   0  0  0  0  0  0  0  0  0  0  0  0
    1.4780   -4.9454    0.0000 O   0  0  0  0  0  0  0  0  0  0  0  0
    0.1190   -4.5039    0.0000 N   0  0  0  0  0  0  0  0  0  0  0  0
    0.3739   -3.7192    0.0000 C   0  0  0  0  0  0  0  0  0  0  0  0
   -0.1781   -3.1062    0.0000 C   0  0  0  0  0  0  0  0  0  0  0  0
    0.0768   -2.3215    0.0000 C   0  0  0  0  0  0  0  0  0  0  0  0
    0.8838   -2.1500    0.0000 C   0  0  0  0  0  0  0  0  0  0  0  0
    1.1387   -1.3654    0.0000 N   0  0  0  0  0  0  0  0  0  0  0  0
    0.6538   -0.6979    0.0000 C   0  0  0  0  0  0  0  0  0  0  0  0
    1.1387   -0.0305    0.0000 N   0  0  0  0  0  0  0  0  0  0  0  0
    1.9233   -0.2854    0.0000 C   0  0  0  0  0  0  0  0  0  0  0  0
    2.6378    0.1271    0.0000 C   0  0  0  0  0  0  0  0  0  0  0  0
    3.3523   -0.2854    0.0000 C   0  0  0  0  0  0  0  0  0  0  0  0
    4.0668    0.1271    0.0000 Cl  0  0  0  0  0  0  0  0  0  0  0  0
    3.3523   -1.1104    0.0000 C   0  0  0  0  0  0  0  0  0  0  0  0
    2.6378   -1.5229    0.0000 C   0  0  0  0  0  0  0  0  0  0  0  0
    1.9233   -1.1104    0.0000 C   0  0  0  0  0  0  0  0  0  0  0  0
    1.4358   -2.7631    0.0000 C   0  0  0  0  0  0  0  0  0  0  0  0
    1.1809   -3.5477    0.0000 C   0  0  0  0  0  0  0  0  0  0  0  0
    1.7329   -4.1608    0.0000 F   0  0  0  0  0  0  0  0  0  0  0  0
    2.1385   -5.8546    0.0000 C   0  0  0  0  0  0  0  0  0  0  0  0
  1  2  2  0  0  0  0
  2  3  1  0  0  0  0
  2  4  1  0  0  0  0
  4  5  4  0  0  0  0
  5  6  4  0  0  0  0
  6  7  4  0  0  0  0
  7  8  4  0  0  0  0
  8  9  1  0  0  0  0
  9 10  4  0  0  0  0
 10 11  4  0  0  0  0
 11 12  1  0  0  0  0
 12 13  1  0  0  0  0
 12 14  1  0  0  0  0
 12 15  1  0  0  0  0
 11 16  4  0  0  0  0
 16 17  4  0  0  0  0
  9 17  4  0  0  0  0
 17 18  1  0  0  0  0
 18 19  2  0  0  0  0
 18 20  1  0  0  0  0
 20 21  1  0  0  0  0
 21 22  4  0  0  0  0
 22 23  4  0  0  0  0
 23 24  4  0  0  0  0
 24 25  1  0  0  0  0
 25 26  4  0  0  0  0
 26 27  4  0  0  0  0
 27 28  4  0  0  0  0
 28 29  4  0  0  0  0
 29 30  4  0  0  0  0
 30 31  1  0  0  0  0
 30 32  4  0  0  0  0
 32 33  4  0  0  0  0
 33 34  4  0  0  0  0
 28 34  4  0  0  0  0
 25 34  4  0  0  0  0
 24 35  4  0  0  0  0
 35 36  4  0  0  0  0
 21 36  4  0  0  0  0
 36 37  1  0  0  0  0
  8 38  4  0  0  0  0
  4 38  4  0  0  0  0
M  END
>  <CdId>
358454

>  <Mol Weight>
541.887

>  <Formula>
C25H16ClF4N7O

>  <cmpd_chemblid>
CHEMBL186761

>  <std_type>
Ki

>  <std_value>
4.2

>  <std_unit>
nM

>  <target_id>
CHEMBL2016

>  <target_name>
Coagulation factor IX

>  <organism>
Homo sapiens

>  <target_type>
SINGLE PROTEIN

$$$$

  Mrv0541 08052111042D          

 46 50  0  0  1  0            999 V2000
    3.9849    3.9849    0.0000 C   0  0  0  0  0  0  0  0  0  0  0  0
    4.3974    3.2704    0.0000 C   0  0  2  0  0  0  0  0  0  0  0  0
    5.2224    3.2704    0.0000 C   0  0  0  0  0  0  0  0  0  0  0  0
    5.6349    2.5559    0.0000 C   0  0  0  0  0  0  0  0  0  0  0  0
    6.4599    2.5559    0.0000 C   0  0  0  0  0  0  0  0  0  0  0  0
    6.8724    1.8414    0.0000 C   0  0  2  0  0  0  0  0  0  0  0  0
    7.6974    1.8414    0.0000 N   0  0  0  0  0  0  0  0  0  0  0  0
    8.1099    2.5559    0.0000 C   0  0  0  0  0  0  0  0  0  0  0  0
    8.9349    2.5559    0.0000 C   0  0  0  0  0  0  0  0  0  0  0  0
    9.3474    1.8414    0.0000 C   0  0  0  0  0  0  0  0  0  0  0  0
   10.1724    1.8414    0.0000 C   0  0  0  0  0  0  0  0  0  0  0  0
   10.5849    2.5559    0.0000 C   0  0  0  0  0  0  0  0  0  0  0  0
   10.1724    3.2704    0.0000 C   0  0  0  0  0  0  0  0  0  0  0  0
    9.7599    3.9849    0.0000 N   0  0  0  0  0  0  0  0  0  0  0  0
   11.4099    2.5559    0.0000 C   0  0  0  0  0  0  0  0  0  0  0  0
   11.8224    1.8414    0.0000 C   0  0  0  0  0  0  0  0  0  0  0  0
   11.4099    1.1270    0.0000 C   0  0  0  0  0  0  0  0  0  0  0  0
   11.8224    0.4125    0.0000 Cl  0  0  0  0  0  0  0  0  0  0  0  0
   10.5849    1.1270    0.0000 C   0  0  0  0  0  0  0  0  0  0  0  0
   10.1724    0.4125    0.0000 F   0  0  0  0  0  0  0  0  0  0  0  0
    8.9349    1.1270    0.0000 C   0  0  0  0  0  0  0  0  0  0  0  0
    8.1099    1.1270    0.0000 C   0  0  0  0  0  0  0  0  0  0  0  0
    7.6974    0.4125    0.0000 O   0  0  0  0  0  0  0  0  0  0  0  0
    6.4599    1.1270    0.0000 C   0  0  0  0  0  0  0  0  0  0  0  0
    5.6349    1.1270    0.0000 C   0  0  0  0  0  0  0  0  0  0  0  0
    5.2224    0.4125    0.0000 C   0  0  0  0  0  0  0  0  0  0  0  0
    5.6349   -0.3020    0.0000 C   0  0  0  0  0  0  0  0  0  0  0  0
    6.4599   -0.3020    0.0000 C   0  0  0  0  0  0  0  0  0  0  0  0
    6.8724    0.4125    0.0000 N   0  0  0  0  0  0  0  0  0  0  0  0
    4.3974    0.4125    0.0000 C   0  0  0  0  0  0  0  0  0  0  0  0
    3.9849   -0.3020    0.0000 C   0  0  0  0  0  0  0  0  0  0  0  0
    3.1599   -0.3020    0.0000 C   0  0  0  0  0  0  0  0  0  0  0  0
    2.7474    0.4125    0.0000 C   0  0  0  0  0  0  0  0  0  0  0  0
    1.9224    0.4125    0.0000 N   0  0  0  0  0  0  0  0  0  0  0  0
    1.5099   -0.3020    0.0000 C   0  0  0  0  0  0  0  0  0  0  0  0
    1.9224   -1.0164    0.0000 O   0  0  0  0  0  0  0  0  0  0  0  0
    0.6849   -0.3020    0.0000 O   0  0  0  0  0  0  0  0  0  0  0  0
    0.2724   -1.0164    0.0000 C   0  0  0  0  0  0  0  0  0  0  0  0
   -0.1401   -1.7309    0.0000 C   0  0  0  0  0  0  0  0  0  0  0  0
   -0.4421   -0.6039    0.0000 C   0  0  0  0  0  0  0  0  0  0  0  0
    0.9868   -1.4289    0.0000 C   0  0  0  0  0  0  0  0  0  0  0  0
    3.1599    1.1270    0.0000 C   0  0  0  0  0  0  0  0  0  0  0  0
    3.9849    1.1270    0.0000 C   0  0  0  0  0  0  0  0  0  0  0  0
    4.3974    1.8414    0.0000 N   0  0  0  0  0  0  0  0  0  0  0  0
    3.9849    2.5559    0.0000 C   0  0  0  0  0  0  0  0  0  0  0  0
    3.1599    2.5559    0.0000 O   0  0  0  0  0  0  0  0  0  0  0  0
  2  1  1  6  0  0  0
  2  3  1  0  0  0  0
  3  4  1  0  0  0  0
  4  5  1  0  0  0  0
  5  6  1  0  0  0  0
  6  7  1  6  0  0  0
  7  8  1  0  0  0  0
  8  9  1  0  0  0  0
  9 10  1  0  0  0  0
 10 11  1  0  0  0  0
 11 12  4  0  0  0  0
 12 13  1  0  0  0  0
 13 14  3  0  0  0  0
 12 15  4  0  0  0  0
 15 16  4  0  0  0  0
 16 17  4  0  0  0  0
 17 18  1  0  0  0  0
 17 19  4  0  0  0  0
 11 19  4  0  0  0  0
 19 20  1  0  0  0  0
 10 21  2  0  0  0  0
 21 22  1  0  0  0  0
  7 22  1  0  0  0  0
 22 23  2  0  0  0  0
  6 24  1  0  0  0  0
 24 25  4  0  0  0  0
 25 26  4  0  0  0  0
 26 27  4  0  0  0  0
 27 28  4  0  0  0  0
 28 29  4  0  0  0  0
 24 29  4  0  0  0  0
 26 30  1  0  0  0  0
 30 31  4  0  0  0  0
 31 32  4  0  0  0  0
 32 33  4  0  0  0  0
 33 34  1  0  0  0  0
 34 35  1  0  0  0  0
 35 36  2  0  0  0  0
 35 37  1  0  0  0  0
 37 38  1  0  0  0  0
 38 39  1  0  0  0  0
 38 40  1  0  0  0  0
 38 41  1  0  0  0  0
 33 42  4  0  0  0  0
 42 43  4  0  0  0  0
 30 43  4  0  0  0  0
 43 44  1  0  0  0  0
 44 45  1  0  0  0  0
  2 45  1  0  0  0  0
 45 46  2  0  0  0  0
M  END
>  <CdId>
358455

>  <Mol Weight>
644.135

>  <Formula>
C35H35ClFN5O4

>  <cmpd_chemblid>
CHEMBL4110473

>  <std_type>
Ki

>  <std_value>
43.61

>  <std_unit>
nM

>  <target_id>
CHEMBL2016

>  <target_name>
Coagulation factor IX

>  <organism>
Homo sapiens

>  <target_type>
SINGLE PROTEIN

$$$$

  Mrv0541 08052111042D          

 35 38  0  0  0  0            999 V2000
   -4.0248   -1.5081    0.0000 C   0  0  0  0  0  0  0  0  0  0  0  0
   -3.8532   -2.3150    0.0000 N   0  0  0  0  0  0  0  0  0  0  0  0
   -3.0686   -2.5700    0.0000 C   0  0  0  0  0  0  0  0  0  0  0  0
   -2.8971   -3.3769    0.0000 C   0  0  0  0  0  0  0  0  0  0  0  0
   -2.1434   -3.7125    0.0000 C   0  0  0  0  0  0  0  0  0  0  0  0
   -1.4289   -3.3000    0.0000 N   0  0  0  0  0  0  0  0  0  0  0  0
   -0.7145   -3.7125    0.0000 C   0  0  0  0  0  0  0  0  0  0  0  0
   -0.7145   -4.5375    0.0000 O   0  0  0  0  0  0  0  0  0  0  0  0
    0.0000   -3.3000    0.0000 O   0  0  0  0  0  0  0  0  0  0  0  0
    0.7145   -3.7125    0.0000 C   0  0  0  0  0  0  0  0  0  0  0  0
    1.4289   -3.3000    0.0000 C   0  0  0  0  0  0  0  0  0  0  0  0
    2.1434   -3.7125    0.0000 O   0  0  0  0  0  0  0  0  0  0  0  0
    2.8579   -3.3000    0.0000 C   0  0  0  0  0  0  0  0  0  0  0  0
    2.8579   -2.4750    0.0000 C   0  0  0  0  0  0  0  0  0  0  0  0
    3.5724   -2.0625    0.0000 C   0  0  0  0  0  0  0  0  0  0  0  0
    4.2868   -2.4750    0.0000 C   0  0  0  0  0  0  0  0  0  0  0  0
    4.2868   -3.3000    0.0000 C   0  0  0  0  0  0  0  0  0  0  0  0
    4.8999   -3.8520    0.0000 S   0  0  0  0  0  0  0  0  0  0  0  0
    4.5644   -4.6057    0.0000 C   0  0  0  0  0  0  0  0  0  0  0  0
    4.9769   -5.3202    0.0000 C   0  0  0  0  0  0  0  0  0  0  0  0
    5.8019   -5.3202    0.0000 N   0  0  0  0  0  0  0  0  0  0  0  0
    4.5644   -6.0346    0.0000 N   0  0  0  0  0  0  0  0  0  0  0  0
    3.7439   -4.5195    0.0000 C   0  0  0  0  0  0  0  0  0  0  0  0
    3.5724   -3.7125    0.0000 C   0  0  0  0  0  0  0  0  0  0  0  0
    1.4289   -2.4750    0.0000 C   0  0  0  0  0  0  0  0  0  0  0  0
    0.7145   -2.0625    0.0000 C   0  0  0  0  0  0  0  0  0  0  0  0
    0.7145   -1.2375    0.0000 C   0  0  0  0  0  0  0  0  0  0  0  0
    1.4289   -0.8250    0.0000 C   0  0  0  0  0  0  0  0  0  0  0  0
    2.1434   -1.2375    0.0000 C   0  0  0  0  0  0  0  0  0  0  0  0
    2.1434   -2.0625    0.0000 C   0  0  0  0  0  0  0  0  0  0  0  0
   -2.2296   -4.5330    0.0000 C   0  0  0  0  0  0  0  0  0  0  0  0
   -1.6166   -5.0850    0.0000 C   0  0  0  0  0  0  0  0  0  0  0  0
   -3.0366   -4.7045    0.0000 N   0  0  0  0  0  0  0  0  0  0  0  0
   -3.4491   -3.9900    0.0000 N   0  0  0  0  0  0  0  0  0  0  0  0
   -4.2696   -3.9038    0.0000 C   0  0  0  0  0  0  0  0  0  0  0  0
  1  2  1  0  0  0  0
  2  3  1  0  0  0  0
  3  4  1  0  0  0  0
  4  5  4  0  0  0  0
  5  6  1  0  0  0  0
  6  7  1  0  0  0  0
  7  8  2  0  0  0  0
  7  9  1  0  0  0  0
  9 10  1  0  0  0  0
 10 11  1  0  0  0  0
 11 12  1  0  0  0  0
 12 13  1  0  0  0  0
 13 14  4  0  0  0  0
 14 15  4  0  0  0  0
 15 16  4  0  0  0  0
 16 17  4  0  0  0  0
 17 18  4  0  0  0  0
 18 19  4  0  0  0  0
 19 20  1  0  0  0  0
 20 21  2  0  0  0  0
 20 22  1  0  0  0  0
 19 23  4  0  0  0  0
 23 24  4  0  0  0  0
 13 24  4  0  0  0  0
 17 24  4  0  0  0  0
 11 25  1  0  0  0  0
 25 26  4  0  0  0  0
 26 27  4  0  0  0  0
 27 28  4  0  0  0  0
 28 29  4  0  0  0  0
 29 30  4  0  0  0  0
 25 30  4  0  0  0  0
  5 31  4  0  0  0  0
 31 32  1  0  0  0  0
 31 33  4  0  0  0  0
 33 34  4  0  0  0  0
  4 34  4  0  0  0  0
 34 35  1  0  0  0  0
M  END
>  <CdId>
358456

>  <Mol Weight>
492.593

>  <Formula>
C25H28N6O3S

>  <cmpd_chemblid>
CHEMBL602082

>  <std_type>
Ki

>  <std_value>
5.0

>  <std_unit>
nM

>  <target_id>
CHEMBL2016

>  <target_name>
Coagulation factor IX

>  <organism>
Homo sapiens

>  <target_type>
SINGLE PROTEIN

$$$$

  Mrv0541 08052111042D          

 43 47  0  0  1  0            999 V2000
    3.9849    3.9849    0.0000 C   0  0  0  0  0  0  0  0  0  0  0  0
    4.3974    3.2704    0.0000 C   0  0  0  0  0  0  0  0  0  0  0  0
    5.2224    3.2704    0.0000 C   0  0  0  0  0  0  0  0  0  0  0  0
    5.6349    2.5559    0.0000 C   0  0  0  0  0  0  0  0  0  0  0  0
    6.4599    2.5559    0.0000 C   0  0  0  0  0  0  0  0  0  0  0  0
    6.8724    1.8414    0.0000 C   0  0  2  0  0  0  0  0  0  0  0  0
    7.6974    1.8414    0.0000 N   0  0  0  0  0  0  0  0  0  0  0  0
    8.1099    2.5559    0.0000 C   0  0  0  0  0  0  0  0  0  0  0  0
    8.9349    2.5559    0.0000 C   0  0  0  0  0  0  0  0  0  0  0  0
    9.3474    1.8414    0.0000 C   0  0  0  0  0  0  0  0  0  0  0  0
   10.1724    1.8414    0.0000 C   0  0  0  0  0  0  0  0  0  0  0  0
   10.5849    2.5559    0.0000 C   0  0  0  0  0  0  0  0  0  0  0  0
   10.1724    3.2704    0.0000 C   0  0  0  0  0  0  0  0  0  0  0  0
    9.7599    3.9849    0.0000 F   0  0  0  0  0  0  0  0  0  0  0  0
    9.4579    2.8579    0.0000 F   0  0  0  0  0  0  0  0  0  0  0  0
   10.8868    3.6829    0.0000 F   0  0  0  0  0  0  0  0  0  0  0  0
   11.4099    2.5559    0.0000 C   0  0  0  0  0  0  0  0  0  0  0  0
   11.8224    1.8414    0.0000 C   0  0  0  0  0  0  0  0  0  0  0  0
   11.4099    1.1270    0.0000 C   0  0  0  0  0  0  0  0  0  0  0  0
   11.8224    0.4125    0.0000 Cl  0  0  0  0  0  0  0  0  0  0  0  0
   10.5849    1.1270    0.0000 C   0  0  0  0  0  0  0  0  0  0  0  0
   10.1724    0.4125    0.0000 F   0  0  0  0  0  0  0  0  0  0  0  0
    8.9349    1.1270    0.0000 C   0  0  0  0  0  0  0  0  0  0  0  0
    8.1099    1.1270    0.0000 C   0  0  0  0  0  0  0  0  0  0  0  0
    7.6974    0.4125    0.0000 O   0  0  0  0  0  0  0  0  0  0  0  0
    6.4599    1.1270    0.0000 C   0  0  0  0  0  0  0  0  0  0  0  0
    5.6349    1.1270    0.0000 C   0  0  0  0  0  0  0  0  0  0  0  0
    5.2224    0.4125    0.0000 C   0  0  0  0  0  0  0  0  0  0  0  0
    5.6349   -0.3020    0.0000 C   0  0  0  0  0  0  0  0  0  0  0  0
    6.4599   -0.3020    0.0000 C   0  0  0  0  0  0  0  0  0  0  0  0
    6.8724    0.4125    0.0000 N   0  0  0  0  0  0  0  0  0  0  0  0
    4.3974    0.4125    0.0000 C   0  0  0  0  0  0  0  0  0  0  0  0
    3.9849   -0.3020    0.0000 C   0  0  0  0  0  0  0  0  0  0  0  0
    3.1599   -0.3020    0.0000 C   0  0  0  0  0  0  0  0  0  0  0  0
    2.7474    0.4125    0.0000 C   0  0  0  0  0  0  0  0  0  0  0  0
    1.9224    0.4125    0.0000 C   0  0  0  0  0  0  0  0  0  0  0  0
    1.5099   -0.3020    0.0000 O   0  0  0  0  0  0  0  0  0  0  0  0
    1.5099    1.1270    0.0000 O   0  0  0  0  0  0  0  0  0  0  0  0
    3.1599    1.1270    0.0000 C   0  0  0  0  0  0  0  0  0  0  0  0
    3.9849    1.1270    0.0000 C   0  0  0  0  0  0  0  0  0  0  0  0
    4.3974    1.8414    0.0000 N   0  0  0  0  0  0  0  0  0  0  0  0
    3.9849    2.5559    0.0000 C   0  0  0  0  0  0  0  0  0  0  0  0
    3.1599    2.5559    0.0000 O   0  0  0  0  0  0  0  0  0  0  0  0
  1  2  1  0  0  0  0
  2  3  1  0  0  0  0
  3  4  1  0  0  0  0
  4  5  1  0  0  0  0
  5  6  1  0  0  0  0
  6  7  1  6  0  0  0
  7  8  1  0  0  0  0
  8  9  1  0  0  0  0
  9 10  1  0  0  0  0
 10 11  1  0  0  0  0
 11 12  4  0  0  0  0
 12 13  1  0  0  0  0
 13 14  1  0  0  0  0
 13 15  1  0  0  0  0
 13 16  1  0  0  0  0
 12 17  4  0  0  0  0
 17 18  4  0  0  0  0
 18 19  4  0  0  0  0
 19 20  1  0  0  0  0
 19 21  4  0  0  0  0
 11 21  4  0  0  0  0
 21 22  1  0  0  0  0
 10 23  2  0  0  0  0
 23 24  1  0  0  0  0
  7 24  1  0  0  0  0
 24 25  2  0  0  0  0
  6 26  1  0  0  0  0
 26 27  4  0  0  0  0
 27 28  4  0  0  0  0
 28 29  4  0  0  0  0
 29 30  4  0  0  0  0
 30 31  4  0  0  0  0
 26 31  4  0  0  0  0
 28 32  1  0  0  0  0
 32 33  4  0  0  0  0
 33 34  4  0  0  0  0
 34 35  4  0  0  0  0
 35 36  1  0  0  0  0
 36 37  2  0  0  0  0
 36 38  1  0  0  0  0
 35 39  4  0  0  0  0
 39 40  4  0  0  0  0
 32 40  4  0  0  0  0
 40 41  1  0  0  0  0
 41 42  1  0  0  0  0
  2 42  1  0  0  0  0
 42 43  2  0  0  0  0
M  END
>  <CdId>
358457

>  <Mol Weight>
616.002

>  <Formula>
C31H26ClF4N3O4

>  <cmpd_chemblid>
CHEMBL3960611

>  <std_type>
Ki

>  <std_value>
342.0

>  <std_unit>
nM

>  <target_id>
CHEMBL2016

>  <target_name>
Coagulation factor IX

>  <organism>
Homo sapiens

>  <target_type>
SINGLE PROTEIN

$$$$

  Mrv0541 08052111042D          

 39 43  0  0  1  0            999 V2000
    3.1599    3.9849    0.0000 C   0  0  0  0  0  0  0  0  0  0  0  0
    3.9849    3.9849    0.0000 C   0  0  0  0  0  0  0  0  0  0  0  0
    4.3974    4.6993    0.0000 C   0  0  0  0  0  0  0  0  0  0  0  0
    4.3974    3.2704    0.0000 C   0  0  1  0  0  0  0  0  0  0  0  0
    5.2224    3.2704    0.0000 C   0  0  0  0  0  0  0  0  0  0  0  0
    5.6349    2.5559    0.0000 C   0  0  0  0  0  0  0  0  0  0  0  0
    6.4599    2.5559    0.0000 C   0  0  0  0  0  0  0  0  0  0  0  0
    6.8724    1.8414    0.0000 C   0  0  2  0  0  0  0  0  0  0  0  0
    7.6974    1.8414    0.0000 N   0  0  0  0  0  0  0  0  0  0  0  0
    8.1099    2.5559    0.0000 C   0  0  0  0  0  0  0  0  0  0  0  0
    8.9349    2.5559    0.0000 C   0  0  0  0  0  0  0  0  0  0  0  0
    9.3474    1.8414    0.0000 C   0  0  0  0  0  0  0  0  0  0  0  0
   10.1724    1.8414    0.0000 C   0  0  0  0  0  0  0  0  0  0  0  0
   10.5849    2.5559    0.0000 C   0  0  0  0  0  0  0  0  0  0  0  0
   10.1724    3.2704    0.0000 F   0  0  0  0  0  0  0  0  0  0  0  0
   11.4099    2.5559    0.0000 C   0  0  0  0  0  0  0  0  0  0  0  0
   11.8224    1.8414    0.0000 C   0  0  0  0  0  0  0  0  0  0  0  0
   11.4099    1.1270    0.0000 C   0  0  0  0  0  0  0  0  0  0  0  0
   11.8224    0.4125    0.0000 Cl  0  0  0  0  0  0  0  0  0  0  0  0
   10.5849    1.1270    0.0000 C   0  0  0  0  0  0  0  0  0  0  0  0
   10.1724    0.4125    0.0000 F   0  0  0  0  0  0  0  0  0  0  0  0
    8.9349    1.1270    0.0000 C   0  0  0  0  0  0  0  0  0  0  0  0
    8.1099    1.1270    0.0000 C   0  0  0  0  0  0  0  0  0  0  0  0
    7.6974    0.4125    0.0000 O   0  0  0  0  0  0  0  0  0  0  0  0
    6.4599    1.1270    0.0000 C   0  0  0  0  0  0  0  0  0  0  0  0
    5.6349    1.1270    0.0000 C   0  0  0  0  0  0  0  0  0  0  0  0
    5.2224    0.4125    0.0000 C   0  0  0  0  0  0  0  0  0  0  0  0
    5.6349   -0.3020    0.0000 C   0  0  0  0  0  0  0  0  0  0  0  0
    6.4599   -0.3020    0.0000 C   0  0  0  0  0  0  0  0  0  0  0  0
    6.8724    0.4125    0.0000 N   0  0  0  0  0  0  0  0  0  0  0  0
    4.3974    0.4125    0.0000 C   0  0  0  0  0  0  0  0  0  0  0  0
    3.9849   -0.3020    0.0000 C   0  0  0  0  0  0  0  0  0  0  0  0
    3.1599   -0.3020    0.0000 C   0  0  0  0  0  0  0  0  0  0  0  0
    2.7474    0.4125    0.0000 C   0  0  0  0  0  0  0  0  0  0  0  0
    3.1599    1.1270    0.0000 C   0  0  0  0  0  0  0  0  0  0  0  0
    3.9849    1.1270    0.0000 C   0  0  0  0  0  0  0  0  0  0  0  0
    4.3974    1.8414    0.0000 N   0  0  0  0  0  0  0  0  0  0  0  0
    3.9849    2.5559    0.0000 C   0  0  0  0  0  0  0  0  0  0  0  0
    3.1599    2.5559    0.0000 O   0  0  0  0  0  0  0  0  0  0  0  0
  1  2  1  0  0  0  0
  2  3  1  0  0  0  0
  4  2  1  1  0  0  0
  4  5  1  0  0  0  0
  5  6  1  0  0  0  0
  6  7  1  0  0  0  0
  7  8  1  0  0  0  0
  8  9  1  6  0  0  0
  9 10  1  0  0  0  0
 10 11  1  0  0  0  0
 11 12  1  0  0  0  0
 12 13  1  0  0  0  0
 13 14  4  0  0  0  0
 14 15  1  0  0  0  0
 14 16  4  0  0  0  0
 16 17  4  0  0  0  0
 17 18  4  0  0  0  0
 18 19  1  0  0  0  0
 18 20  4  0  0  0  0
 13 20  4  0  0  0  0
 20 21  1  0  0  0  0
 12 22  2  0  0  0  0
 22 23  1  0  0  0  0
  9 23  1  0  0  0  0
 23 24  2  0  0  0  0
  8 25  1  0  0  0  0
 25 26  4  0  0  0  0
 26 27  4  0  0  0  0
 27 28  4  0  0  0  0
 28 29  4  0  0  0  0
 29 30  4  0  0  0  0
 25 30  4  0  0  0  0
 27 31  1  0  0  0  0
 31 32  4  0  0  0  0
 32 33  4  0  0  0  0
 33 34  4  0  0  0  0
 34 35  4  0  0  0  0
 35 36  4  0  0  0  0
 31 36  4  0  0  0  0
 36 37  1  0  0  0  0
 37 38  1  0  0  0  0
  4 38  1  0  0  0  0
 38 39  2  0  0  0  0
M  END
>  <CdId>
358458

>  <Mol Weight>
550.039

>  <Formula>
C31H30ClF2N3O2

>  <cmpd_chemblid>
CHEMBL4114616

>  <std_type>
Ki

>  <std_value>
421.7

>  <std_unit>
nM

>  <target_id>
CHEMBL2016

>  <target_name>
Coagulation factor IX

>  <organism>
Homo sapiens

>  <target_type>
SINGLE PROTEIN

$$$$

  Mrv0541 08052111042D          

 49 54  0  0  1  0            999 V2000
    3.9849    3.9849    0.0000 C   0  0  0  0  0  0  0  0  0  0  0  0
    4.3974    3.2704    0.0000 C   0  0  2  0  0  0  0  0  0  0  0  0
    5.2224    3.2704    0.0000 C   0  0  0  0  0  0  0  0  0  0  0  0
    5.6349    2.5559    0.0000 C   0  0  0  0  0  0  0  0  0  0  0  0
    6.4599    2.5559    0.0000 C   0  0  0  0  0  0  0  0  0  0  0  0
    6.8724    1.8414    0.0000 C   0  0  2  0  0  0  0  0  0  0  0  0
    7.6974    1.8414    0.0000 N   0  0  0  0  0  0  0  0  0  0  0  0
    8.1099    2.5559    0.0000 C   0  0  0  0  0  0  0  0  0  0  0  0
    8.9349    2.5559    0.0000 C   0  0  0  0  0  0  0  0  0  0  0  0
    9.3474    1.8414    0.0000 C   0  0  0  0  0  0  0  0  0  0  0  0
   10.1724    1.8414    0.0000 C   0  0  0  0  0  0  0  0  0  0  0  0
   10.5849    2.5559    0.0000 C   0  0  0  0  0  0  0  0  0  0  0  0
   10.1724    3.2704    0.0000 F   0  0  0  0  0  0  0  0  0  0  0  0
   11.4099    2.5559    0.0000 C   0  0  0  0  0  0  0  0  0  0  0  0
   11.8224    1.8414    0.0000 C   0  0  0  0  0  0  0  0  0  0  0  0
   11.4099    1.1270    0.0000 C   0  0  0  0  0  0  0  0  0  0  0  0
   11.8224    0.4125    0.0000 Cl  0  0  0  0  0  0  0  0  0  0  0  0
   10.5849    1.1270    0.0000 C   0  0  0  0  0  0  0  0  0  0  0  0
   10.1724    0.4125    0.0000 F   0  0  0  0  0  0  0  0  0  0  0  0
    8.9349    1.1270    0.0000 C   0  0  0  0  0  0  0  0  0  0  0  0
    8.1099    1.1270    0.0000 C   0  0  0  0  0  0  0  0  0  0  0  0
    7.6974    0.4125    0.0000 O   0  0  0  0  0  0  0  0  0  0  0  0
    6.4599    1.1270    0.0000 C   0  0  0  0  0  0  0  0  0  0  0  0
    5.6349    1.1270    0.0000 C   0  0  0  0  0  0  0  0  0  0  0  0
    5.2224    0.4125    0.0000 C   0  0  0  0  0  0  0  0  0  0  0  0
    5.6349   -0.3020    0.0000 C   0  0  0  0  0  0  0  0  0  0  0  0
    6.4599   -0.3020    0.0000 C   0  0  0  0  0  0  0  0  0  0  0  0
    6.8724    0.4125    0.0000 N   0  0  0  0  0  0  0  0  0  0  0  0
    4.3974    0.4125    0.0000 C   0  0  0  0  0  0  0  0  0  0  0  0
    3.9849   -0.3020    0.0000 C   0  0  0  0  0  0  0  0  0  0  0  0
    3.1599   -0.3020    0.0000 C   0  0  0  0  0  0  0  0  0  0  0  0
    2.7474    0.4125    0.0000 C   0  0  0  0  0  0  0  0  0  0  0  0
    1.9224    0.4125    0.0000 N   0  0  0  0  0  0  0  0  0  0  0  0
    1.5099    1.1270    0.0000 C   0  0  0  0  0  0  0  0  0  0  0  0
    0.6849    1.1270    0.0000 O   0  0  0  0  0  0  0  0  0  0  0  0
    0.2724    1.8414    0.0000 C   0  0  2  0  0  0  0  0  0  0  0  0
   -0.5526    1.8414    0.0000 C   0  0  0  0  0  0  0  0  0  0  0  0
   -0.9651    1.1270    0.0000 O   0  0  0  0  0  0  0  0  0  0  0  0
    0.6849    2.5559    0.0000 C   0  0  1  0  0  0  0  0  0  0  0  0
    0.2724    3.2704    0.0000 O   0  0  0  0  0  0  0  0  0  0  0  0
    1.5099    2.5559    0.0000 C   0  0  2  0  0  0  0  0  0  0  0  0
    1.9224    3.2704    0.0000 O   0  0  0  0  0  0  0  0  0  0  0  0
    1.9224    1.8414    0.0000 C   0  0  1  0  0  0  0  0  0  0  0  0
    2.7474    1.8414    0.0000 O   0  0  0  0  0  0  0  0  0  0  0  0
    3.1599    1.1270    0.0000 C   0  0  0  0  0  0  0  0  0  0  0  0
    3.9849    1.1270    0.0000 C   0  0  0  0  0  0  0  0  0  0  0  0
    4.3974    1.8414    0.0000 N   0  0  0  0  0  0  0  0  0  0  0  0
    3.9849    2.5559    0.0000 C   0  0  0  0  0  0  0  0  0  0  0  0
    3.1599    2.5559    0.0000 O   0  0  0  0  0  0  0  0  0  0  0  0
  2  1  1  6  0  0  0
  2  3  1  0  0  0  0
  3  4  1  0  0  0  0
  4  5  1  0  0  0  0
  5  6  1  0  0  0  0
  6  7  1  6  0  0  0
  7  8  1  0  0  0  0
  8  9  1  0  0  0  0
  9 10  1  0  0  0  0
 10 11  1  0  0  0  0
 11 12  4  0  0  0  0
 12 13  1  0  0  0  0
 12 14  4  0  0  0  0
 14 15  4  0  0  0  0
 15 16  4  0  0  0  0
 16 17  1  0  0  0  0
 16 18  4  0  0  0  0
 11 18  4  0  0  0  0
 18 19  1  0  0  0  0
 10 20  2  0  0  0  0
 20 21  1  0  0  0  0
  7 21  1  0  0  0  0
 21 22  2  0  0  0  0
  6 23  1  0  0  0  0
 23 24  4  0  0  0  0
 24 25  4  0  0  0  0
 25 26  4  0  0  0  0
 26 27  4  0  0  0  0
 27 28  4  0  0  0  0
 23 28  4  0  0  0  0
 25 29  1  0  0  0  0
 29 30  4  0  0  0  0
 30 31  4  0  0  0  0
 31 32  4  0  0  0  0
 32 33  1  0  0  0  0
 33 34  1  0  0  0  0
 34 35  1  0  0  0  0
 35 36  1  0  0  0  0
 36 37  1  6  0  0  0
 37 38  1  0  0  0  0
 36 39  1  0  0  0  0
 39 40  1  1  0  0  0
 39 41  1  0  0  0  0
 41 42  1  6  0  0  0
 41 43  1  0  0  0  0
 34 43  1  0  0  0  0
 43 44  1  1  0  0  0
 32 45  4  0  0  0  0
 45 46  4  0  0  0  0
 29 46  4  0  0  0  0
 46 47  1  0  0  0  0
 47 48  1  0  0  0  0
  2 48  1  0  0  0  0
 48 49  2  0  0  0  0
M  END
>  <CdId>
358459

>  <Mol Weight>
699.141

>  <Formula>
C35H37ClF2N4O7

>  <cmpd_chemblid>
CHEMBL4114561

>  <std_type>
Ki

>  <std_value>
16.08

>  <std_unit>
nM

>  <target_id>
CHEMBL2016

>  <target_name>
Coagulation factor IX

>  <organism>
Homo sapiens

>  <target_type>
SINGLE PROTEIN

$$$$

  Mrv0541 08052111042D          

 35 40  0  0  1  0            999 V2000
    9.0730    0.6738    0.0000 N   0  0  0  0  0  0  0  0  0  0  0  0
    9.3280    1.4584    0.0000 C   0  0  0  0  0  0  0  0  0  0  0  0
    8.8430    2.1259    0.0000 N   0  0  0  0  0  0  0  0  0  0  0  0
    9.3280    2.7933    0.0000 O   0  0  0  0  0  0  0  0  0  0  0  0
   10.1126    2.5384    0.0000 C   0  0  0  0  0  0  0  0  0  0  0  0
   10.8270    2.9509    0.0000 C   0  0  0  0  0  0  0  0  0  0  0  0
   10.8270    3.7759    0.0000 N   0  0  0  0  0  0  0  0  0  0  0  0
   10.1596    4.2608    0.0000 C   0  0  0  0  0  0  0  0  0  0  0  0
   10.4145    5.0454    0.0000 C   0  0  0  0  0  0  0  0  0  0  0  0
   11.2395    5.0454    0.0000 C   0  0  1  0  0  0  0  0  0  0  0  0
   11.7245    5.7129    0.0000 N   0  0  0  0  0  0  0  0  0  0  0  0
   11.3889    6.4665    0.0000 C   0  0  0  0  0  0  0  0  0  0  0  0
   10.5684    6.5528    0.0000 O   0  0  0  0  0  0  0  0  0  0  0  0
   11.8738    7.1340    0.0000 C   0  0  0  0  0  0  0  0  0  0  0  0
   11.5383    7.8876    0.0000 C   0  0  0  0  0  0  0  0  0  0  0  0
   12.0232    8.5551    0.0000 C   0  0  0  0  0  0  0  0  0  0  0  0
   12.8437    8.4688    0.0000 C   0  0  0  0  0  0  0  0  0  0  0  0
   13.3286    9.1363    0.0000 N   0  0  0  0  0  0  0  0  0  0  0  0
   13.0737    9.9209    0.0000 C   0  0  0  0  0  0  0  0  0  0  0  0
   13.7411   10.4058    0.0000 N   0  0  0  0  0  0  0  0  0  0  0  0
   14.4085    9.9209    0.0000 C   0  0  0  0  0  0  0  0  0  0  0  0
   15.2155   10.0924    0.0000 C   0  0  0  0  0  0  0  0  0  0  0  0
   15.7675    9.4793    0.0000 C   0  0  0  0  0  0  0  0  0  0  0  0
   15.5126    8.6947    0.0000 C   0  0  0  0  0  0  0  0  0  0  0  0
   14.7056    8.5232    0.0000 C   0  0  0  0  0  0  0  0  0  0  0  0
   14.1536    9.1363    0.0000 C   0  0  0  0  0  0  0  0  0  0  0  0
   13.1792    7.7152    0.0000 C   0  0  0  0  0  0  0  0  0  0  0  0
   12.6943    7.0477    0.0000 C   0  0  0  0  0  0  0  0  0  0  0  0
   13.0299    6.2941    0.0000 Cl  0  0  0  0  0  0  0  0  0  0  0  0
   11.4945    4.2608    0.0000 C   0  0  0  0  0  0  0  0  0  0  0  0
   11.5415    2.5384    0.0000 N   0  0  0  0  0  0  0  0  0  0  0  0
   11.5415    1.7134    0.0000 C   0  0  0  0  0  0  0  0  0  0  0  0
   10.8270    1.3009    0.0000 C   0  0  0  0  0  0  0  0  0  0  0  0
   10.8270    0.4759    0.0000 Cl  0  0  0  0  0  0  0  0  0  0  0  0
   10.1126    1.7134    0.0000 C   0  0  0  0  0  0  0  0  0  0  0  0
  1  2  1  0  0  0  0
  2  3  4  0  0  0  0
  3  4  4  0  0  0  0
  4  5  4  0  0  0  0
  5  6  4  0  0  0  0
  6  7  1  0  0  0  0
  7  8  1  0  0  0  0
  8  9  1  0  0  0  0
  9 10  1  0  0  0  0
 10 11  1  1  0  0  0
 11 12  1  0  0  0  0
 12 13  2  0  0  0  0
 12 14  1  0  0  0  0
 14 15  4  0  0  0  0
 15 16  4  0  0  0  0
 16 17  4  0  0  0  0
 17 18  1  0  0  0  0
 18 19  4  0  0  0  0
 19 20  4  0  0  0  0
 20 21  4  0  0  0  0
 21 22  4  0  0  0  0
 22 23  4  0  0  0  0
 23 24  4  0  0  0  0
 24 25  4  0  0  0  0
 25 26  4  0  0  0  0
 21 26  4  0  0  0  0
 18 26  4  0  0  0  0
 17 27  4  0  0  0  0
 27 28  4  0  0  0  0
 14 28  4  0  0  0  0
 28 29  1  0  0  0  0
 10 30  1  0  0  0  0
  7 30  1  0  0  0  0
  6 31  4  0  0  0  0
 31 32  4  0  0  0  0
 32 33  4  0  0  0  0
 33 34  1  0  0  0  0
 33 35  4  0  0  0  0
  2 35  4  0  0  0  0
  5 35  4  0  0  0  0
M  END
>  <CdId>
358460

>  <Mol Weight>
508.359

>  <Formula>
C24H19Cl2N7O2

>  <cmpd_chemblid>
CHEMBL4087720

>  <std_type>
Ki

>  <std_value>
16.0

>  <std_unit>
nM

>  <target_id>
CHEMBL2016

>  <target_name>
Coagulation factor IX

>  <organism>
Homo sapiens

>  <target_type>
SINGLE PROTEIN

$$$$

  Mrv0541 08052111042D          

 44 49  0  0  1  0            999 V2000
    3.9849    3.9849    0.0000 C   0  0  0  0  0  0  0  0  0  0  0  0
    4.3974    3.2704    0.0000 C   0  0  2  0  0  0  0  0  0  0  0  0
    5.2224    3.2704    0.0000 C   0  0  0  0  0  0  0  0  0  0  0  0
    5.6349    2.5559    0.0000 C   0  0  0  0  0  0  0  0  0  0  0  0
    6.4599    2.5559    0.0000 C   0  0  0  0  0  0  0  0  0  0  0  0
    6.8724    1.8414    0.0000 C   0  0  2  0  0  0  0  0  0  0  0  0
    7.6974    1.8414    0.0000 N   0  0  0  0  0  0  0  0  0  0  0  0
    8.1099    2.5559    0.0000 C   0  0  0  0  0  0  0  0  0  0  0  0
    8.9349    2.5559    0.0000 C   0  0  0  0  0  0  0  0  0  0  0  0
    9.3474    1.8414    0.0000 C   0  0  0  0  0  0  0  0  0  0  0  0
   10.1724    1.8414    0.0000 C   0  0  0  0  0  0  0  0  0  0  0  0
   10.5849    2.5559    0.0000 C   0  0  0  0  0  0  0  0  0  0  0  0
   10.1724    3.2704    0.0000 F   0  0  0  0  0  0  0  0  0  0  0  0
   11.4099    2.5559    0.0000 C   0  0  0  0  0  0  0  0  0  0  0  0
   11.8224    1.8414    0.0000 C   0  0  0  0  0  0  0  0  0  0  0  0
   11.4099    1.1270    0.0000 C   0  0  0  0  0  0  0  0  0  0  0  0
   11.8224    0.4125    0.0000 Cl  0  0  0  0  0  0  0  0  0  0  0  0
   10.5849    1.1270    0.0000 C   0  0  0  0  0  0  0  0  0  0  0  0
   10.1724    0.4125    0.0000 F   0  0  0  0  0  0  0  0  0  0  0  0
    8.9349    1.1270    0.0000 C   0  0  0  0  0  0  0  0  0  0  0  0
    8.1099    1.1270    0.0000 C   0  0  0  0  0  0  0  0  0  0  0  0
    7.6974    0.4125    0.0000 O   0  0  0  0  0  0  0  0  0  0  0  0
    6.4599    1.1270    0.0000 C   0  0  0  0  0  0  0  0  0  0  0  0
    5.6349    1.1270    0.0000 C   0  0  0  0  0  0  0  0  0  0  0  0
    5.2224    0.4125    0.0000 C   0  0  0  0  0  0  0  0  0  0  0  0
    5.6349   -0.3020    0.0000 C   0  0  0  0  0  0  0  0  0  0  0  0
    6.4599   -0.3020    0.0000 C   0  0  0  0  0  0  0  0  0  0  0  0
    6.8724    0.4125    0.0000 N   0  0  0  0  0  0  0  0  0  0  0  0
    4.3974    0.4125    0.0000 C   0  0  0  0  0  0  0  0  0  0  0  0
    3.9849   -0.3020    0.0000 C   0  0  0  0  0  0  0  0  0  0  0  0
    3.1599   -0.3020    0.0000 C   0  0  0  0  0  0  0  0  0  0  0  0
    2.7474    0.4125    0.0000 C   0  0  0  0  0  0  0  0  0  0  0  0
    1.9224    0.4125    0.0000 N   0  0  0  0  0  0  0  0  0  0  0  0
    1.5099    1.1270    0.0000 C   0  0  0  0  0  0  0  0  0  0  0  0
    0.6849    1.1270    0.0000 C   0  0  0  0  0  0  0  0  0  0  0  0
    0.2724    1.8414    0.0000 C   0  0  0  0  0  0  0  0  0  0  0  0
    0.6849    2.5559    0.0000 N   0  0  0  0  0  0  0  0  0  0  0  0
    1.5099    2.5559    0.0000 C   0  0  0  0  0  0  0  0  0  0  0  0
    1.9224    1.8414    0.0000 N   0  0  0  0  0  0  0  0  0  0  0  0
    3.1599    1.1270    0.0000 C   0  0  0  0  0  0  0  0  0  0  0  0
    3.9849    1.1270    0.0000 C   0  0  0  0  0  0  0  0  0  0  0  0
    4.3974    1.8414    0.0000 N   0  0  0  0  0  0  0  0  0  0  0  0
    3.9849    2.5559    0.0000 C   0  0  0  0  0  0  0  0  0  0  0  0
    3.1599    2.5559    0.0000 O   0  0  0  0  0  0  0  0  0  0  0  0
  2  1  1  6  0  0  0
  2  3  1  0  0  0  0
  3  4  1  0  0  0  0
  4  5  1  0  0  0  0
  5  6  1  0  0  0  0
  6  7  1  6  0  0  0
  7  8  1  0  0  0  0
  8  9  1  0  0  0  0
  9 10  1  0  0  0  0
 10 11  1  0  0  0  0
 11 12  4  0  0  0  0
 12 13  1  0  0  0  0
 12 14  4  0  0  0  0
 14 15  4  0  0  0  0
 15 16  4  0  0  0  0
 16 17  1  0  0  0  0
 16 18  4  0  0  0  0
 11 18  4  0  0  0  0
 18 19  1  0  0  0  0
 10 20  2  0  0  0  0
 20 21  1  0  0  0  0
  7 21  1  0  0  0  0
 21 22  2  0  0  0  0
  6 23  1  0  0  0  0
 23 24  4  0  0  0  0
 24 25  4  0  0  0  0
 25 26  4  0  0  0  0
 26 27  4  0  0  0  0
 27 28  4  0  0  0  0
 23 28  4  0  0  0  0
 25 29  1  0  0  0  0
 29 30  4  0  0  0  0
 30 31  4  0  0  0  0
 31 32  4  0  0  0  0
 32 33  1  0  0  0  0
 33 34  1  0  0  0  0
 34 35  4  0  0  0  0
 35 36  4  0  0  0  0
 36 37  4  0  0  0  0
 37 38  4  0  0  0  0
 38 39  4  0  0  0  0
 34 39  4  0  0  0  0
 32 40  4  0  0  0  0
 40 41  4  0  0  0  0
 29 41  4  0  0  0  0
 41 42  1  0  0  0  0
 42 43  1  0  0  0  0
  2 43  1  0  0  0  0
 43 44  2  0  0  0  0
M  END
>  <CdId>
358462

>  <Mol Weight>
615.072

>  <Formula>
C33H29ClF2N6O2

>  <cmpd_chemblid>
CHEMBL4109906

>  <std_type>
Ki

>  <std_value>
1.81

>  <std_unit>
nM

>  <target_id>
CHEMBL2016

>  <target_name>
Coagulation factor IX

>  <organism>
Homo sapiens

>  <target_type>
SINGLE PROTEIN

$$$$

  Mrv0541 08052111042D          

 40 44  0  0  1  0            999 V2000
    4.5375   -2.9684    0.0000 C   0  0  0  0  0  0  0  0  0  0  0  0
    4.1250   -2.2539    0.0000 O   0  0  0  0  0  0  0  0  0  0  0  0
    3.3000   -2.2539    0.0000 C   0  0  0  0  0  0  0  0  0  0  0  0
    2.8875   -2.9684    0.0000 O   0  0  0  0  0  0  0  0  0  0  0  0
    2.8875   -1.5395    0.0000 C   0  0  0  0  0  0  0  0  0  0  0  0
    3.3000   -0.8250    0.0000 C   0  0  0  0  0  0  0  0  0  0  0  0
    2.8875   -0.1105    0.0000 C   0  0  0  0  0  0  0  0  0  0  0  0
    2.0625   -0.1105    0.0000 C   0  0  0  0  0  0  0  0  0  0  0  0
    1.6500   -0.8250    0.0000 C   0  0  0  0  0  0  0  0  0  0  0  0
    2.0625   -1.5395    0.0000 C   0  0  0  0  0  0  0  0  0  0  0  0
    0.8250   -0.8250    0.0000 C   0  0  0  0  0  0  0  0  0  0  0  0
    0.4125   -1.5395    0.0000 C   0  0  0  0  0  0  0  0  0  0  0  0
   -0.4125   -1.5395    0.0000 C   0  0  0  0  0  0  0  0  0  0  0  0
   -0.8250   -0.8250    0.0000 C   0  0  0  0  0  0  0  0  0  0  0  0
   -0.4125   -0.1105    0.0000 C   0  0  0  0  0  0  0  0  0  0  0  0
    0.4125   -0.1105    0.0000 C   0  0  0  0  0  0  0  0  0  0  0  0
   -0.8250    0.6039    0.0000 C   0  0  1  0  0  0  0  0  0  0  0  0
   -1.6500    0.6039    0.0000 N   0  0  0  0  0  0  0  0  0  0  0  0
   -2.0625   -0.1105    0.0000 C   0  0  0  0  0  0  0  0  0  0  0  0
   -2.8875   -0.1105    0.0000 C   0  0  0  0  0  0  0  0  0  0  0  0
   -3.3000    0.6039    0.0000 C   0  0  0  0  0  0  0  0  0  0  0  0
   -4.1250    0.6039    0.0000 C   0  0  0  0  0  0  0  0  0  0  0  0
   -4.5375   -0.1105    0.0000 C   0  0  0  0  0  0  0  0  0  0  0  0
   -5.3625   -0.1105    0.0000 C   0  0  0  0  0  0  0  0  0  0  0  0
   -5.7750    0.6039    0.0000 C   0  0  0  0  0  0  0  0  0  0  0  0
   -5.3625    1.3184    0.0000 C   0  0  0  0  0  0  0  0  0  0  0  0
   -5.7750    2.0329    0.0000 Cl  0  0  0  0  0  0  0  0  0  0  0  0
   -4.5375    1.3184    0.0000 C   0  0  0  0  0  0  0  0  0  0  0  0
   -4.1250    2.0329    0.0000 F   0  0  0  0  0  0  0  0  0  0  0  0
   -2.8875    1.3184    0.0000 C   0  0  0  0  0  0  0  0  0  0  0  0
   -2.0625    1.3184    0.0000 C   0  0  0  0  0  0  0  0  0  0  0  0
   -1.6500    2.0329    0.0000 O   0  0  0  0  0  0  0  0  0  0  0  0
   -0.4125    1.3184    0.0000 C   0  0  0  0  0  0  0  0  0  0  0  0
    0.4125    1.3184    0.0000 C   0  0  0  0  0  0  0  0  0  0  0  0
    0.8250    2.0329    0.0000 C   0  0  0  0  0  0  0  0  0  0  0  0
    1.6500    2.0329    0.0000 C   0  0  1  0  0  0  0  0  0  0  0  0
    2.0625    2.7474    0.0000 C   0  0  0  0  0  0  0  0  0  0  0  0
    2.0625    1.3184    0.0000 C   0  0  0  0  0  0  0  0  0  0  0  0
    2.8875    1.3184    0.0000 O   0  0  0  0  0  0  0  0  0  0  0  0
    1.6500    0.6039    0.0000 N   0  0  0  0  0  0  0  0  0  0  0  0
  1  2  1  0  0  0  0
  2  3  1  0  0  0  0
  3  4  2  0  0  0  0
  3  5  1  0  0  0  0
  5  6  4  0  0  0  0
  6  7  4  0  0  0  0
  7  8  4  0  0  0  0
  8  9  4  0  0  0  0
  9 10  4  0  0  0  0
  5 10  4  0  0  0  0
  9 11  1  0  0  0  0
 11 12  4  0  0  0  0
 12 13  4  0  0  0  0
 13 14  4  0  0  0  0
 14 15  4  0  0  0  0
 15 16  4  0  0  0  0
 11 16  4  0  0  0  0
 15 17  1  0  0  0  0
 17 18  1  1  0  0  0
 18 19  1  0  0  0  0
 19 20  1  0  0  0  0
 20 21  1  0  0  0  0
 21 22  1  0  0  0  0
 22 23  4  0  0  0  0
 23 24  4  0  0  0  0
 24 25  4  0  0  0  0
 25 26  4  0  0  0  0
 26 27  1  0  0  0  0
 26 28  4  0  0  0  0
 22 28  4  0  0  0  0
 28 29  1  0  0  0  0
 21 30  2  0  0  0  0
 30 31  1  0  0  0  0
 18 31  1  0  0  0  0
 31 32  2  0  0  0  0
 17 33  1  0  0  0  0
 33 34  1  0  0  0  0
 34 35  1  0  0  0  0
 35 36  1  0  0  0  0
 36 37  1  1  0  0  0
 36 38  1  0  0  0  0
 38 39  2  0  0  0  0
 38 40  1  0  0  0  0
  8 40  1  0  0  0  0
M  END
>  <CdId>
358463

>  <Mol Weight>
561.043

>  <Formula>
C32H30ClFN2O4

>  <cmpd_chemblid>
CHEMBL4109359

>  <std_type>
Ki

>  <std_value>
416.7

>  <std_unit>
nM

>  <target_id>
CHEMBL2016

>  <target_name>
Coagulation factor IX

>  <organism>
Homo sapiens

>  <target_type>
SINGLE PROTEIN

$$$$

  Mrv0541 08052111042D          

 28 31  0  0  0  0            999 V2000
   -0.5837   -1.4124    0.0000 N   0  0  0  0  0  0  0  0  0  0  0  0
   -0.1712   -0.6979    0.0000 C   0  0  0  0  0  0  0  0  0  0  0  0
   -0.5837    0.0165    0.0000 N   0  0  0  0  0  0  0  0  0  0  0  0
    0.6538   -0.6979    0.0000 C   0  0  0  0  0  0  0  0  0  0  0  0
    1.1387   -0.0305    0.0000 C   0  0  0  0  0  0  0  0  0  0  0  0
    1.9233   -0.2854    0.0000 C   0  0  0  0  0  0  0  0  0  0  0  0
    2.6378    0.1271    0.0000 C   0  0  0  0  0  0  0  0  0  0  0  0
    3.3523   -0.2854    0.0000 C   0  0  0  0  0  0  0  0  0  0  0  0
    4.0668    0.1271    0.0000 C   0  0  0  0  0  0  0  0  0  0  0  0
    4.0668    0.9521    0.0000 C   0  0  0  0  0  0  0  0  0  0  0  0
    4.7812    1.3646    0.0000 C   0  0  0  0  0  0  0  0  0  0  0  0
    5.4957    0.9521    0.0000 C   0  0  0  0  0  0  0  0  0  0  0  0
    5.4957    0.1271    0.0000 C   0  0  0  0  0  0  0  0  0  0  0  0
    6.2102   -0.2854    0.0000 O   0  0  0  0  0  0  0  0  0  0  0  0
    6.9246    0.1271    0.0000 C   0  0  0  0  0  0  0  0  0  0  0  0
    7.6391   -0.2854    0.0000 C   0  0  0  0  0  0  0  0  0  0  0  0
    8.3536    0.1271    0.0000 C   0  0  0  0  0  0  0  0  0  0  0  0
    9.0681   -0.2854    0.0000 C   0  0  0  0  0  0  0  0  0  0  0  0
    9.0681   -1.1104    0.0000 C   0  0  0  0  0  0  0  0  0  0  0  0
    9.7825   -1.5229    0.0000 Cl  0  0  0  0  0  0  0  0  0  0  0  0
    8.3536   -1.5229    0.0000 C   0  0  0  0  0  0  0  0  0  0  0  0
    8.3536   -2.3479    0.0000 F   0  0  0  0  0  0  0  0  0  0  0  0
    7.6391   -1.1104    0.0000 C   0  0  0  0  0  0  0  0  0  0  0  0
    4.7812   -0.2854    0.0000 C   0  0  0  0  0  0  0  0  0  0  0  0
    3.3523   -1.1104    0.0000 C   0  0  0  0  0  0  0  0  0  0  0  0
    2.6378   -1.5229    0.0000 C   0  0  0  0  0  0  0  0  0  0  0  0
    1.9233   -1.1104    0.0000 C   0  0  0  0  0  0  0  0  0  0  0  0
    1.1387   -1.3654    0.0000 S   0  0  0  0  0  0  0  0  0  0  0  0
  1  2  2  0  0  0  0
  2  3  1  0  0  0  0
  2  4  1  0  0  0  0
  4  5  4  0  0  0  0
  5  6  4  0  0  0  0
  6  7  4  0  0  0  0
  7  8  4  0  0  0  0
  8  9  1  0  0  0  0
  9 10  4  0  0  0  0
 10 11  4  0  0  0  0
 11 12  4  0  0  0  0
 12 13  4  0  0  0  0
 13 14  1  0  0  0  0
 14 15  1  0  0  0  0
 15 16  1  0  0  0  0
 16 17  4  0  0  0  0
 17 18  4  0  0  0  0
 18 19  4  0  0  0  0
 19 20  1  0  0  0  0
 19 21  4  0  0  0  0
 21 22  1  0  0  0  0
 21 23  4  0  0  0  0
 16 23  4  0  0  0  0
 13 24  4  0  0  0  0
  9 24  4  0  0  0  0
  8 25  4  0  0  0  0
 25 26  4  0  0  0  0
 26 27  4  0  0  0  0
  6 27  4  0  0  0  0
 27 28  4  0  0  0  0
  4 28  4  0  0  0  0
M  END
>  <CdId>
358464

>  <Mol Weight>
410.892

>  <Formula>
C22H16ClFN2OS

>  <cmpd_chemblid>
CHEMBL596766

>  <std_type>
Ki

>  <std_value>
75.0

>  <std_unit>
nM

>  <target_id>
CHEMBL2016

>  <target_name>
Coagulation factor IX

>  <organism>
Homo sapiens

>  <target_type>
SINGLE PROTEIN

$$$$

  Mrv0541 08052111042D          

 39 43  0  0  1  0            999 V2000
    3.9849    3.9849    0.0000 C   0  0  0  0  0  0  0  0  0  0  0  0
    4.3974    3.2704    0.0000 C   0  0  2  0  0  0  0  0  0  0  0  0
    5.2224    3.2704    0.0000 C   0  0  0  0  0  0  0  0  0  0  0  0
    5.6349    2.5559    0.0000 C   0  0  0  0  0  0  0  0  0  0  0  0
    6.4599    2.5559    0.0000 C   0  0  0  0  0  0  0  0  0  0  0  0
    6.8724    1.8414    0.0000 C   0  0  2  0  0  0  0  0  0  0  0  0
    7.6974    1.8414    0.0000 N   0  0  0  0  0  0  0  0  0  0  0  0
    8.1099    2.5559    0.0000 C   0  0  0  0  0  0  0  0  0  0  0  0
    8.9349    2.5559    0.0000 C   0  0  0  0  0  0  0  0  0  0  0  0
    9.3474    1.8414    0.0000 C   0  0  0  0  0  0  0  0  0  0  0  0
   10.1724    1.8414    0.0000 C   0  0  0  0  0  0  0  0  0  0  0  0
   10.5849    2.5559    0.0000 C   0  0  0  0  0  0  0  0  0  0  0  0
   10.1724    3.2704    0.0000 F   0  0  0  0  0  0  0  0  0  0  0  0
   11.4099    2.5559    0.0000 C   0  0  0  0  0  0  0  0  0  0  0  0
   11.8224    1.8414    0.0000 C   0  0  0  0  0  0  0  0  0  0  0  0
   11.4099    1.1270    0.0000 C   0  0  0  0  0  0  0  0  0  0  0  0
   11.8224    0.4125    0.0000 Cl  0  0  0  0  0  0  0  0  0  0  0  0
   10.5849    1.1270    0.0000 C   0  0  0  0  0  0  0  0  0  0  0  0
   10.1724    0.4125    0.0000 F   0  0  0  0  0  0  0  0  0  0  0  0
    8.9349    1.1270    0.0000 C   0  0  0  0  0  0  0  0  0  0  0  0
    8.1099    1.1270    0.0000 C   0  0  0  0  0  0  0  0  0  0  0  0
    7.6974    0.4125    0.0000 O   0  0  0  0  0  0  0  0  0  0  0  0
    6.4599    1.1270    0.0000 C   0  0  0  0  0  0  0  0  0  0  0  0
    5.6349    1.1270    0.0000 C   0  0  0  0  0  0  0  0  0  0  0  0
    5.2224    0.4125    0.0000 C   0  0  0  0  0  0  0  0  0  0  0  0
    5.6349   -0.3020    0.0000 C   0  0  0  0  0  0  0  0  0  0  0  0
    6.4599   -0.3020    0.0000 C   0  0  0  0  0  0  0  0  0  0  0  0
    6.8724    0.4125    0.0000 N   0  0  0  0  0  0  0  0  0  0  0  0
    4.3974    0.4125    0.0000 C   0  0  0  0  0  0  0  0  0  0  0  0
    3.9849   -0.3020    0.0000 C   0  0  0  0  0  0  0  0  0  0  0  0
    3.1599   -0.3020    0.0000 C   0  0  0  0  0  0  0  0  0  0  0  0
    2.7474   -1.0164    0.0000 I   0  0  0  0  0  0  0  0  0  0  0  0
    2.7474    0.4125    0.0000 C   0  0  0  0  0  0  0  0  0  0  0  0
    1.9224    0.4125    0.0000 N   0  0  0  0  0  0  0  0  0  0  0  0
    3.1599    1.1270    0.0000 C   0  0  0  0  0  0  0  0  0  0  0  0
    3.9849    1.1270    0.0000 C   0  0  0  0  0  0  0  0  0  0  0  0
    4.3974    1.8414    0.0000 N   0  0  0  0  0  0  0  0  0  0  0  0
    3.9849    2.5559    0.0000 C   0  0  0  0  0  0  0  0  0  0  0  0
    3.1599    2.5559    0.0000 O   0  0  0  0  0  0  0  0  0  0  0  0
  2  1  1  6  0  0  0
  2  3  1  0  0  0  0
  3  4  1  0  0  0  0
  4  5  1  0  0  0  0
  5  6  1  0  0  0  0
  6  7  1  6  0  0  0
  7  8  1  0  0  0  0
  8  9  1  0  0  0  0
  9 10  1  0  0  0  0
 10 11  1  0  0  0  0
 11 12  4  0  0  0  0
 12 13  1  0  0  0  0
 12 14  4  0  0  0  0
 14 15  4  0  0  0  0
 15 16  4  0  0  0  0
 16 17  1  0  0  0  0
 16 18  4  0  0  0  0
 11 18  4  0  0  0  0
 18 19  1  0  0  0  0
 10 20  2  0  0  0  0
 20 21  1  0  0  0  0
  7 21  1  0  0  0  0
 21 22  2  0  0  0  0
  6 23  1  0  0  0  0
 23 24  4  0  0  0  0
 24 25  4  0  0  0  0
 25 26  4  0  0  0  0
 26 27  4  0  0  0  0
 27 28  4  0  0  0  0
 23 28  4  0  0  0  0
 25 29  1  0  0  0  0
 29 30  4  0  0  0  0
 30 31  4  0  0  0  0
 31 32  1  0  0  0  0
 31 33  4  0  0  0  0
 33 34  1  0  0  0  0
 33 35  4  0  0  0  0
 35 36  4  0  0  0  0
 29 36  4  0  0  0  0
 36 37  1  0  0  0  0
 37 38  1  0  0  0  0
  2 38  1  0  0  0  0
 38 39  2  0  0  0  0
M  END
>  <CdId>
358465

>  <Mol Weight>
662.897

>  <Formula>
C29H26ClF2IN4O2

>  <cmpd_chemblid>
CHEMBL4109315

>  <std_type>
Ki

>  <std_value>
24.62

>  <std_unit>
nM

>  <target_id>
CHEMBL2016

>  <target_name>
Coagulation factor IX

>  <organism>
Homo sapiens

>  <target_type>
SINGLE PROTEIN

$$$$

  Mrv0541 08052111042D          

 52 57  0  0  1  0            999 V2000
    9.8704   -0.1105    0.0000 C   0  0  0  0  0  0  0  0  0  0  0  0
    9.4579   -0.8250    0.0000 C   0  0  0  0  0  0  0  0  0  0  0  0
    9.8704   -1.5395    0.0000 O   0  0  0  0  0  0  0  0  0  0  0  0
    8.6329   -0.8250    0.0000 N   0  0  0  0  0  0  0  0  0  0  0  0
    8.2204   -1.5395    0.0000 C   0  0  2  0  0  0  0  0  0  0  0  0
    7.3954   -1.5395    0.0000 C   0  0  0  0  0  0  0  0  0  0  0  0
    6.9829   -0.8250    0.0000 N   0  0  0  0  0  0  0  0  0  0  0  0
    6.1579   -0.8250    0.0000 C   0  0  0  0  0  0  0  0  0  0  0  0
    5.7454   -0.1105    0.0000 C   0  0  0  0  0  0  0  0  0  0  0  0
    4.9204   -0.1105    0.0000 C   0  0  0  0  0  0  0  0  0  0  0  0
    4.5079   -0.8250    0.0000 C   0  0  0  0  0  0  0  0  0  0  0  0
    4.9204   -1.5395    0.0000 C   0  0  0  0  0  0  0  0  0  0  0  0
    5.7454   -1.5395    0.0000 C   0  0  0  0  0  0  0  0  0  0  0  0
    4.5079   -2.2539    0.0000 N   0  0  0  0  0  0  0  0  0  0  0  0
    4.9204   -2.9684    0.0000 C   0  0  0  0  0  0  0  0  0  0  0  0
    5.7454   -2.9684    0.0000 O   0  0  0  0  0  0  0  0  0  0  0  0
    4.5079   -3.6829    0.0000 C   0  0  2  0  0  0  0  0  0  0  0  0
    4.9204   -4.3974    0.0000 C   0  0  0  0  0  0  0  0  0  0  0  0
    3.6829   -3.6829    0.0000 C   0  0  0  0  0  0  0  0  0  0  0  0
    3.2704   -2.9684    0.0000 C   0  0  0  0  0  0  0  0  0  0  0  0
    2.4454   -2.9684    0.0000 C   0  0  0  0  0  0  0  0  0  0  0  0
    2.0329   -2.2539    0.0000 C   0  0  2  0  0  0  0  0  0  0  0  0
    1.2079   -2.2539    0.0000 N   0  0  0  0  0  0  0  0  0  0  0  0
    0.7954   -2.9684    0.0000 C   0  0  0  0  0  0  0  0  0  0  0  0
   -0.0296   -2.9684    0.0000 C   0  0  0  0  0  0  0  0  0  0  0  0
   -0.4421   -2.2539    0.0000 C   0  0  0  0  0  0  0  0  0  0  0  0
   -1.2671   -2.2539    0.0000 C   0  0  0  0  0  0  0  0  0  0  0  0
   -1.6796   -2.9684    0.0000 C   0  0  0  0  0  0  0  0  0  0  0  0
   -1.2671   -3.6829    0.0000 F   0  0  0  0  0  0  0  0  0  0  0  0
   -2.5046   -2.9684    0.0000 C   0  0  0  0  0  0  0  0  0  0  0  0
   -2.9171   -2.2539    0.0000 C   0  0  0  0  0  0  0  0  0  0  0  0
   -2.5046   -1.5395    0.0000 C   0  0  0  0  0  0  0  0  0  0  0  0
   -2.9171   -0.8250    0.0000 Cl  0  0  0  0  0  0  0  0  0  0  0  0
   -1.6796   -1.5395    0.0000 C   0  0  0  0  0  0  0  0  0  0  0  0
   -1.2671   -0.8250    0.0000 F   0  0  0  0  0  0  0  0  0  0  0  0
   -0.0296   -1.5395    0.0000 C   0  0  0  0  0  0  0  0  0  0  0  0
    0.7954   -1.5395    0.0000 C   0  0  0  0  0  0  0  0  0  0  0  0
    1.2079   -0.8250    0.0000 O   0  0  0  0  0  0  0  0  0  0  0  0
    2.4454   -1.5395    0.0000 C   0  0  0  0  0  0  0  0  0  0  0  0
    3.2704   -1.5395    0.0000 C   0  0  0  0  0  0  0  0  0  0  0  0
    3.6829   -0.8250    0.0000 C   0  0  0  0  0  0  0  0  0  0  0  0
    3.2704   -0.1105    0.0000 C   0  0  0  0  0  0  0  0  0  0  0  0
    2.4454   -0.1105    0.0000 C   0  0  0  0  0  0  0  0  0  0  0  0
    2.0329   -0.8250    0.0000 N   0  0  0  0  0  0  0  0  0  0  0  0
    6.9829   -2.2539    0.0000 O   0  0  0  0  0  0  0  0  0  0  0  0
    7.3954   -2.9684    0.0000 C   0  0  2  0  0  0  0  0  0  0  0  0
    6.9829   -3.6829    0.0000 C   0  0  0  0  0  0  0  0  0  0  0  0
    6.1579   -3.6829    0.0000 O   0  0  0  0  0  0  0  0  0  0  0  0
    8.2204   -2.9684    0.0000 C   0  0  1  0  0  0  0  0  0  0  0  0
    8.6329   -3.6829    0.0000 O   0  0  0  0  0  0  0  0  0  0  0  0
    8.6329   -2.2539    0.0000 C   0  0  2  0  0  0  0  0  0  0  0  0
    9.4579   -2.2539    0.0000 O   0  0  0  0  0  0  0  0  0  0  0  0
  1  2  1  0  0  0  0
  2  3  2  0  0  0  0
  2  4  1  0  0  0  0
  5  4  1  1  0  0  0
  5  6  1  0  0  0  0
  6  7  1  0  0  0  0
  7  8  1  0  0  0  0
  8  9  4  0  0  0  0
  9 10  4  0  0  0  0
 10 11  4  0  0  0  0
 11 12  4  0  0  0  0
 12 13  4  0  0  0  0
  8 13  4  0  0  0  0
 12 14  1  0  0  0  0
 14 15  1  0  0  0  0
 15 16  2  0  0  0  0
 15 17  1  0  0  0  0
 17 18  1  6  0  0  0
 17 19  1  0  0  0  0
 19 20  1  0  0  0  0
 20 21  1  0  0  0  0
 21 22  1  0  0  0  0
 22 23  1  6  0  0  0
 23 24  1  0  0  0  0
 24 25  1  0  0  0  0
 25 26  1  0  0  0  0
 26 27  1  0  0  0  0
 27 28  4  0  0  0  0
 28 29  1  0  0  0  0
 28 30  4  0  0  0  0
 30 31  4  0  0  0  0
 31 32  4  0  0  0  0
 32 33  1  0  0  0  0
 32 34  4  0  0  0  0
 27 34  4  0  0  0  0
 34 35  1  0  0  0  0
 26 36  2  0  0  0  0
 36 37  1  0  0  0  0
 23 37  1  0  0  0  0
 37 38  2  0  0  0  0
 22 39  1  0  0  0  0
 39 40  4  0  0  0  0
 40 41  4  0  0  0  0
 11 41  1  0  0  0  0
 41 42  4  0  0  0  0
 42 43  4  0  0  0  0
 43 44  4  0  0  0  0
 39 44  4  0  0  0  0
  6 45  1  0  0  0  0
 45 46  1  0  0  0  0
 46 47  1  1  0  0  0
 47 48  1  0  0  0  0
 46 49  1  0  0  0  0
 49 50  1  6  0  0  0
 49 51  1  0  0  0  0
  5 51  1  0  0  0  0
 51 52  1  1  0  0  0
M  END
>  <CdId>
358466

>  <Mol Weight>
740.193

>  <Formula>
C37H40ClF2N5O7

>  <cmpd_chemblid>
CHEMBL4107864

>  <std_type>
Ki

>  <std_value>
8.51

>  <std_unit>
nM

>  <target_id>
CHEMBL2016

>  <target_name>
Coagulation factor IX

>  <organism>
Homo sapiens

>  <target_type>
SINGLE PROTEIN

$$$$

  Mrv0541 08052111042D          

 43 47  0  0  1  0            999 V2000
    3.9849    3.9849    0.0000 C   0  0  0  0  0  0  0  0  0  0  0  0
    4.3974    3.2704    0.0000 C   0  0  0  0  0  0  0  0  0  0  0  0
    5.2224    3.2704    0.0000 C   0  0  0  0  0  0  0  0  0  0  0  0
    5.6349    2.5559    0.0000 C   0  0  0  0  0  0  0  0  0  0  0  0
    6.4599    2.5559    0.0000 C   0  0  0  0  0  0  0  0  0  0  0  0
    6.8724    1.8414    0.0000 C   0  0  2  0  0  0  0  0  0  0  0  0
    7.6974    1.8414    0.0000 N   0  0  0  0  0  0  0  0  0  0  0  0
    8.1099    2.5559    0.0000 C   0  0  0  0  0  0  0  0  0  0  0  0
    8.9349    2.5559    0.0000 C   0  0  0  0  0  0  0  0  0  0  0  0
    9.3474    1.8414    0.0000 C   0  0  0  0  0  0  0  0  0  0  0  0
   10.1724    1.8414    0.0000 C   0  0  0  0  0  0  0  0  0  0  0  0
   10.5849    2.5559    0.0000 C   0  0  0  0  0  0  0  0  0  0  0  0
   10.1724    3.2704    0.0000 C   0  0  0  0  0  0  0  0  0  0  0  0
    9.7599    3.9849    0.0000 F   0  0  0  0  0  0  0  0  0  0  0  0
    9.4579    2.8579    0.0000 F   0  0  0  0  0  0  0  0  0  0  0  0
   10.8868    3.6829    0.0000 F   0  0  0  0  0  0  0  0  0  0  0  0
   11.4099    2.5559    0.0000 C   0  0  0  0  0  0  0  0  0  0  0  0
   11.8224    1.8414    0.0000 C   0  0  0  0  0  0  0  0  0  0  0  0
   11.4099    1.1270    0.0000 C   0  0  0  0  0  0  0  0  0  0  0  0
   11.8224    0.4125    0.0000 Cl  0  0  0  0  0  0  0  0  0  0  0  0
   10.5849    1.1270    0.0000 C   0  0  0  0  0  0  0  0  0  0  0  0
   10.1724    0.4125    0.0000 F   0  0  0  0  0  0  0  0  0  0  0  0
    8.9349    1.1270    0.0000 C   0  0  0  0  0  0  0  0  0  0  0  0
    8.1099    1.1270    0.0000 C   0  0  0  0  0  0  0  0  0  0  0  0
    7.6974    0.4125    0.0000 O   0  0  0  0  0  0  0  0  0  0  0  0
    6.4599    1.1270    0.0000 C   0  0  0  0  0  0  0  0  0  0  0  0
    5.6349    1.1270    0.0000 C   0  0  0  0  0  0  0  0  0  0  0  0
    5.2224    0.4125    0.0000 C   0  0  0  0  0  0  0  0  0  0  0  0
    5.6349   -0.3020    0.0000 C   0  0  0  0  0  0  0  0  0  0  0  0
    6.4599   -0.3020    0.0000 C   0  0  0  0  0  0  0  0  0  0  0  0
    6.8724    0.4125    0.0000 N   0  0  0  0  0  0  0  0  0  0  0  0
    4.3974    0.4125    0.0000 C   0  0  0  0  0  0  0  0  0  0  0  0
    3.9849   -0.3020    0.0000 C   0  0  0  0  0  0  0  0  0  0  0  0
    3.1599   -0.3020    0.0000 C   0  0  0  0  0  0  0  0  0  0  0  0
    2.7474    0.4125    0.0000 C   0  0  0  0  0  0  0  0  0  0  0  0
    1.9224    0.4125    0.0000 C   0  0  0  0  0  0  0  0  0  0  0  0
    1.5099   -0.3020    0.0000 N   0  0  0  0  0  0  0  0  0  0  0  0
    1.5099    1.1270    0.0000 O   0  0  0  0  0  0  0  0  0  0  0  0
    3.1599    1.1270    0.0000 C   0  0  0  0  0  0  0  0  0  0  0  0
    3.9849    1.1270    0.0000 C   0  0  0  0  0  0  0  0  0  0  0  0
    4.3974    1.8414    0.0000 N   0  0  0  0  0  0  0  0  0  0  0  0
    3.9849    2.5559    0.0000 C   0  0  0  0  0  0  0  0  0  0  0  0
    3.1599    2.5559    0.0000 O   0  0  0  0  0  0  0  0  0  0  0  0
  1  2  1  0  0  0  0
  2  3  1  0  0  0  0
  3  4  1  0  0  0  0
  4  5  1  0  0  0  0
  5  6  1  0  0  0  0
  6  7  1  6  0  0  0
  7  8  1  0  0  0  0
  8  9  1  0  0  0  0
  9 10  1  0  0  0  0
 10 11  1  0  0  0  0
 11 12  4  0  0  0  0
 12 13  1  0  0  0  0
 13 14  1  0  0  0  0
 13 15  1  0  0  0  0
 13 16  1  0  0  0  0
 12 17  4  0  0  0  0
 17 18  4  0  0  0  0
 18 19  4  0  0  0  0
 19 20  1  0  0  0  0
 19 21  4  0  0  0  0
 11 21  4  0  0  0  0
 21 22  1  0  0  0  0
 10 23  2  0  0  0  0
 23 24  1  0  0  0  0
  7 24  1  0  0  0  0
 24 25  2  0  0  0  0
  6 26  1  0  0  0  0
 26 27  4  0  0  0  0
 27 28  4  0  0  0  0
 28 29  4  0  0  0  0
 29 30  4  0  0  0  0
 30 31  4  0  0  0  0
 26 31  4  0  0  0  0
 28 32  1  0  0  0  0
 32 33  4  0  0  0  0
 33 34  4  0  0  0  0
 34 35  4  0  0  0  0
 35 36  1  0  0  0  0
 36 37  1  0  0  0  0
 36 38  2  0  0  0  0
 35 39  4  0  0  0  0
 39 40  4  0  0  0  0
 32 40  4  0  0  0  0
 40 41  1  0  0  0  0
 41 42  1  0  0  0  0
  2 42  1  0  0  0  0
 42 43  2  0  0  0  0
M  END
>  <CdId>
358468

>  <Mol Weight>
615.018

>  <Formula>
C31H27ClF4N4O3

>  <cmpd_chemblid>
CHEMBL3974516

>  <std_type>
Ki

>  <std_value>
8.13

>  <std_unit>
nM

>  <target_id>
CHEMBL2016

>  <target_name>
Coagulation factor IX

>  <organism>
Homo sapiens

>  <target_type>
SINGLE PROTEIN

$$$$

  Mrv0541 08052111042D          

 35 39  0  0  1  0            999 V2000
    2.7845    0.6979    0.0000 C   0  0  0  0  0  0  0  0  0  0  0  0
    2.0701    1.1104    0.0000 C   0  0  0  0  0  0  0  0  0  0  0  0
    1.3556    0.6979    0.0000 C   0  0  0  0  0  0  0  0  0  0  0  0
    0.6411    1.1104    0.0000 C   0  0  0  0  0  0  0  0  0  0  0  0
   -0.1435    0.8555    0.0000 N   0  0  0  0  0  0  0  0  0  0  0  0
   -0.6284    1.5229    0.0000 C   0  0  0  0  0  0  0  0  0  0  0  0
   -1.4534    1.5229    0.0000 C   0  0  1  0  0  0  0  0  0  0  0  0
   -1.8659    0.8085    0.0000 C   0  0  0  0  0  0  0  0  0  0  0  0
   -2.6909    0.8085    0.0000 N   0  0  0  0  0  0  0  0  0  0  0  0
   -3.1034    0.0940    0.0000 C   0  0  0  0  0  0  0  0  0  0  0  0
   -2.6909   -0.6205    0.0000 O   0  0  0  0  0  0  0  0  0  0  0  0
   -3.9284    0.0940    0.0000 C   0  0  0  0  0  0  0  0  0  0  0  0
   -4.3409   -0.6205    0.0000 C   0  0  0  0  0  0  0  0  0  0  0  0
   -5.1659   -0.6205    0.0000 C   0  0  0  0  0  0  0  0  0  0  0  0
   -5.5784    0.0940    0.0000 C   0  0  0  0  0  0  0  0  0  0  0  0
   -6.4034    0.0940    0.0000 N   0  0  0  0  0  0  0  0  0  0  0  0
   -6.8884   -0.5734    0.0000 C   0  0  0  0  0  0  0  0  0  0  0  0
   -7.6730   -0.3185    0.0000 N   0  0  0  0  0  0  0  0  0  0  0  0
   -7.6730    0.5065    0.0000 N   0  0  0  0  0  0  0  0  0  0  0  0
   -6.8884    0.7614    0.0000 C   0  0  0  0  0  0  0  0  0  0  0  0
   -5.1659    0.8085    0.0000 C   0  0  0  0  0  0  0  0  0  0  0  0
   -4.3409    0.8085    0.0000 C   0  0  0  0  0  0  0  0  0  0  0  0
   -3.9284    1.5229    0.0000 Cl  0  0  0  0  0  0  0  0  0  0  0  0
   -1.8659    2.2374    0.0000 C   0  0  0  0  0  0  0  0  0  0  0  0
   -2.6909    2.2374    0.0000 C   0  0  0  0  0  0  0  0  0  0  0  0
   -3.1034    2.9519    0.0000 C   0  0  0  0  0  0  0  0  0  0  0  0
   -2.6909    3.6664    0.0000 C   0  0  0  0  0  0  0  0  0  0  0  0
   -1.8659    3.6664    0.0000 C   0  0  0  0  0  0  0  0  0  0  0  0
   -1.4534    2.9519    0.0000 C   0  0  0  0  0  0  0  0  0  0  0  0
   -0.6284    2.9519    0.0000 F   0  0  0  0  0  0  0  0  0  0  0  0
   -0.1435    2.1904    0.0000 N   0  0  0  0  0  0  0  0  0  0  0  0
    0.6411    1.9354    0.0000 C   0  0  0  0  0  0  0  0  0  0  0  0
    1.3556    2.3479    0.0000 C   0  0  0  0  0  0  0  0  0  0  0  0
    2.0701    1.9354    0.0000 C   0  0  0  0  0  0  0  0  0  0  0  0
    2.7845    2.3479    0.0000 C   0  0  0  0  0  0  0  0  0  0  0  0
  1  2  1  0  0  0  0
  2  3  4  0  0  0  0
  3  4  4  0  0  0  0
  4  5  4  0  0  0  0
  5  6  4  0  0  0  0
  6  7  1  0  0  0  0
  7  8  1  0  0  0  0
  8  9  1  0  0  0  0
  9 10  1  0  0  0  0
 10 11  2  0  0  0  0
 10 12  1  0  0  0  0
 12 13  4  0  0  0  0
 13 14  4  0  0  0  0
 14 15  4  0  0  0  0
 15 16  1  0  0  0  0
 16 17  4  0  0  0  0
 17 18  4  0  0  0  0
 18 19  4  0  0  0  0
 19 20  4  0  0  0  0
 16 20  4  0  0  0  0
 15 21  4  0  0  0  0
 21 22  4  0  0  0  0
 12 22  4  0  0  0  0
 22 23  1  0  0  0  0
  7 24  1  1  0  0  0
 24 25  4  0  0  0  0
 25 26  4  0  0  0  0
 26 27  4  0  0  0  0
 27 28  4  0  0  0  0
 28 29  4  0  0  0  0
 24 29  4  0  0  0  0
 29 30  1  0  0  0  0
  6 31  4  0  0  0  0
 31 32  4  0  0  0  0
  4 32  4  0  0  0  0
 32 33  4  0  0  0  0
 33 34  4  0  0  0  0
  2 34  4  0  0  0  0
 34 35  1  0  0  0  0
M  STY  1   1 DAT
M  SAL   1  1  31
M  SDT   1 MRV_IMPLICIT_H                                        
M  SDD   1     0.0000    0.0000    DR    ALL  0       0  
M  SED   1 IMPL_H1
M  END
>  <CdId>
358469

>  <Mol Weight>
488.944

>  <Formula>
C26H22ClFN6O

>  <cmpd_chemblid>
CHEMBL3627870

>  <std_type>
Ki

>  <std_value>
19.3

>  <std_unit>
nM

>  <target_id>
CHEMBL2016

>  <target_name>
Coagulation factor IX

>  <organism>
Homo sapiens

>  <target_type>
SINGLE PROTEIN

$$$$

  Mrv0541 08052111042D          

 37 41  0  0  1  0            999 V2000
    0.0000    0.0000    0.0000 C   0  0  0  0  0  0  0  0  0  0  0  0
    0.7145   -0.4125    0.0000 C   0  0  0  0  0  0  0  0  0  0  0  0
    1.4289    0.0000    0.0000 C   0  0  0  0  0  0  0  0  0  0  0  0
    2.1434   -0.4125    0.0000 C   0  0  0  0  0  0  0  0  0  0  0  0
    2.8579    0.0000    0.0000 C   0  0  0  0  0  0  0  0  0  0  0  0
    2.8579    0.8250    0.0000 N   0  0  0  0  0  0  0  0  0  0  0  0
    3.5724   -0.4125    0.0000 N   0  0  0  0  0  0  0  0  0  0  0  0
    3.5724   -1.2375    0.0000 C   0  0  0  0  0  0  0  0  0  0  0  0
    2.8579   -1.6500    0.0000 C   0  0  0  0  0  0  0  0  0  0  0  0
    2.1434   -1.2375    0.0000 C   0  0  0  0  0  0  0  0  0  0  0  0
    1.4289   -1.6500    0.0000 C   0  0  0  0  0  0  0  0  0  0  0  0
    0.7145   -1.2375    0.0000 C   0  0  0  0  0  0  0  0  0  0  0  0
    0.0000   -1.6500    0.0000 C   0  0  0  0  0  0  0  0  0  0  0  0
    0.0000   -2.4750    0.0000 C   0  0  2  0  0  0  0  0  0  0  0  0
    0.7145   -2.8875    0.0000 C   0  0  0  0  0  0  0  0  0  0  0  0
    1.4289   -2.4750    0.0000 O   0  0  0  0  0  0  0  0  0  0  0  0
    0.7145   -3.7125    0.0000 O   0  0  0  0  0  0  0  0  0  0  0  0
   -0.7145   -2.8875    0.0000 N   0  0  0  0  0  0  0  0  0  0  0  0
   -0.8007   -3.7080    0.0000 C   0  0  0  0  0  0  0  0  0  0  0  0
   -1.6077   -3.8795    0.0000 C   0  0  0  0  0  0  0  0  0  0  0  0
   -2.0202   -3.1650    0.0000 C   0  0  2  0  0  0  0  0  0  0  0  0
   -2.8407   -3.0788    0.0000 N   0  0  0  0  0  0  0  0  0  0  0  0
   -3.3256   -3.7462    0.0000 S   0  0  0  0  0  0  0  0  0  0  0  0
   -3.9930   -3.2613    0.0000 O   0  0  0  0  0  0  0  0  0  0  0  0
   -2.6581   -4.2312    0.0000 O   0  0  0  0  0  0  0  0  0  0  0  0
   -3.8105   -4.4137    0.0000 C   0  0  0  0  0  0  0  0  0  0  0  0
   -3.5556   -5.1983    0.0000 C   0  0  0  0  0  0  0  0  0  0  0  0
   -4.2230   -5.6832    0.0000 N   0  0  0  0  0  0  0  0  0  0  0  0
   -4.8904   -5.1983    0.0000 C   0  0  0  0  0  0  0  0  0  0  0  0
   -5.6751   -5.4532    0.0000 N   0  0  0  0  0  0  0  0  0  0  0  0
   -5.9300   -6.2379    0.0000 C   0  0  0  0  0  0  0  0  0  0  0  0
   -6.7550   -6.2379    0.0000 C   0  0  0  0  0  0  0  0  0  0  0  0
   -7.0099   -5.4532    0.0000 C   0  0  0  0  0  0  0  0  0  0  0  0
   -6.3425   -4.9683    0.0000 C   0  0  0  0  0  0  0  0  0  0  0  0
   -4.6355   -4.4137    0.0000 S   0  0  0  0  0  0  0  0  0  0  0  0
   -1.4681   -2.5519    0.0000 C   0  0  0  0  0  0  0  0  0  0  0  0
   -1.6397   -1.7450    0.0000 O   0  0  0  0  0  0  0  0  0  0  0  0
  1  2  1  0  0  0  0
  2  3  4  0  0  0  0
  3  4  4  0  0  0  0
  4  5  4  0  0  0  0
  5  6  1  0  0  0  0
  5  7  4  0  0  0  0
  7  8  4  0  0  0  0
  8  9  4  0  0  0  0
  9 10  4  0  0  0  0
  4 10  4  0  0  0  0
 10 11  4  0  0  0  0
 11 12  4  0  0  0  0
  2 12  4  0  0  0  0
 12 13  1  0  0  0  0
 13 14  1  0  0  0  0
 14 15  1  0  0  0  0
 15 16  2  0  0  0  0
 15 17  1  0  0  0  0
 14 18  1  6  0  0  0
 18 19  1  0  0  0  0
 19 20  1  0  0  0  0
 20 21  1  0  0  0  0
 21 22  1  6  0  0  0
 22 23  1  0  0  0  0
 23 24  2  0  0  0  0
 23 25  2  0  0  0  0
 23 26  1  0  0  0  0
 26 27  4  0  0  0  0
 27 28  4  0  0  0  0
 28 29  4  0  0  0  0
 29 30  1  0  0  0  0
 30 31  1  0  0  0  0
 31 32  1  0  0  0  0
 32 33  1  0  0  0  0
 33 34  1  0  0  0  0
 30 34  1  0  0  0  0
 29 35  4  0  0  0  0
 26 35  4  0  0  0  0
 21 36  1  0  0  0  0
 18 36  1  0  0  0  0
 36 37  2  0  0  0  0
M  END
>  <CdId>
358470

>  <Mol Weight>
544.646

>  <Formula>
C24H28N6O5S2

>  <cmpd_chemblid>
CHEMBL3959693

>  <std_type>
Ki

>  <std_value>
95.0

>  <std_unit>
nM

>  <target_id>
CHEMBL2016

>  <target_name>
Coagulation factor IX

>  <organism>
Homo sapiens

>  <target_type>
SINGLE PROTEIN

$$$$

  Mrv0541 08052111042D          

 43 47  0  0  1  0            999 V2000
   -0.7145   -0.4125    0.0000 C   0  0  0  0  0  0  0  0  0  0  0  0
    0.0000    0.0000    0.0000 O   0  0  0  0  0  0  0  0  0  0  0  0
    0.7145   -0.4125    0.0000 C   0  0  0  0  0  0  0  0  0  0  0  0
    1.4289    0.0000    0.0000 C   0  0  0  0  0  0  0  0  0  0  0  0
    2.1434   -0.4125    0.0000 C   0  0  0  0  0  0  0  0  0  0  0  0
    2.8579    0.0000    0.0000 C   0  0  0  0  0  0  0  0  0  0  0  0
    2.8579    0.8250    0.0000 N   0  0  0  0  0  0  0  0  0  0  0  0
    3.5724   -0.4125    0.0000 N   0  0  0  0  0  0  0  0  0  0  0  0
    3.5724   -1.2375    0.0000 C   0  0  0  0  0  0  0  0  0  0  0  0
    2.8579   -1.6500    0.0000 C   0  0  0  0  0  0  0  0  0  0  0  0
    2.1434   -1.2375    0.0000 C   0  0  0  0  0  0  0  0  0  0  0  0
    1.4289   -1.6500    0.0000 C   0  0  0  0  0  0  0  0  0  0  0  0
    0.7145   -1.2375    0.0000 C   0  0  0  0  0  0  0  0  0  0  0  0
    0.0000   -1.6500    0.0000 C   0  0  0  0  0  0  0  0  0  0  0  0
    0.0000   -2.4750    0.0000 C   0  0  2  0  0  0  0  0  0  0  0  0
   -0.7145   -2.8875    0.0000 C   0  0  0  0  0  0  0  0  0  0  0  0
   -0.7145   -3.7125    0.0000 O   0  0  0  0  0  0  0  0  0  0  0  0
   -1.4289   -2.4750    0.0000 O   0  0  0  0  0  0  0  0  0  0  0  0
   -2.1434   -2.8875    0.0000 C   0  0  0  0  0  0  0  0  0  0  0  0
   -2.1434   -3.7125    0.0000 C   0  0  0  0  0  0  0  0  0  0  0  0
   -2.8579   -2.4750    0.0000 C   0  0  0  0  0  0  0  0  0  0  0  0
    0.7145   -2.8875    0.0000 N   0  0  0  0  0  0  0  0  0  0  0  0
    1.4681   -2.5519    0.0000 C   0  0  0  0  0  0  0  0  0  0  0  0
    2.0202   -3.1650    0.0000 C   0  0  0  0  0  0  0  0  0  0  0  0
    1.6077   -3.8795    0.0000 C   0  0  2  0  0  0  0  0  0  0  0  0
    1.9432   -4.6332    0.0000 N   0  0  0  0  0  0  0  0  0  0  0  0
    2.7637   -4.7194    0.0000 S   0  0  0  0  0  0  0  0  0  0  0  0
    2.6775   -5.5399    0.0000 O   0  0  0  0  0  0  0  0  0  0  0  0
    2.8500   -3.8989    0.0000 O   0  0  0  0  0  0  0  0  0  0  0  0
    3.5842   -4.8057    0.0000 C   0  0  0  0  0  0  0  0  0  0  0  0
    4.1362   -4.1926    0.0000 C   0  0  0  0  0  0  0  0  0  0  0  0
    4.8899   -4.5281    0.0000 N   0  0  0  0  0  0  0  0  0  0  0  0
    4.8037   -5.3486    0.0000 C   0  0  0  0  0  0  0  0  0  0  0  0
    5.4168   -5.9006    0.0000 N   0  0  0  0  0  0  0  0  0  0  0  0
    6.2237   -5.7291    0.0000 C   0  0  0  0  0  0  0  0  0  0  0  0
    6.6362   -6.4436    0.0000 C   0  0  0  0  0  0  0  0  0  0  0  0
    6.0842   -7.0567    0.0000 C   0  0  0  0  0  0  0  0  0  0  0  0
    6.7516   -7.5416    0.0000 F   0  0  0  0  0  0  0  0  0  0  0  0
    5.6717   -7.7711    0.0000 F   0  0  0  0  0  0  0  0  0  0  0  0
    5.3305   -6.7211    0.0000 C   0  0  0  0  0  0  0  0  0  0  0  0
    3.9967   -5.5201    0.0000 S   0  0  0  0  0  0  0  0  0  0  0  0
    0.8007   -3.7080    0.0000 C   0  0  0  0  0  0  0  0  0  0  0  0
    0.1876   -4.2600    0.0000 O   0  0  0  0  0  0  0  0  0  0  0  0
  1  2  1  0  0  0  0
  2  3  1  0  0  0  0
  3  4  4  0  0  0  0
  4  5  4  0  0  0  0
  5  6  4  0  0  0  0
  6  7  1  0  0  0  0
  6  8  4  0  0  0  0
  8  9  4  0  0  0  0
  9 10  4  0  0  0  0
 10 11  4  0  0  0  0
  5 11  4  0  0  0  0
 11 12  4  0  0  0  0
 12 13  4  0  0  0  0
  3 13  4  0  0  0  0
 13 14  1  0  0  0  0
 14 15  1  0  0  0  0
 15 16  1  0  0  0  0
 16 17  2  0  0  0  0
 16 18  1  0  0  0  0
 18 19  1  0  0  0  0
 19 20  1  0  0  0  0
 19 21  1  0  0  0  0
 15 22  1  1  0  0  0
 22 23  1  0  0  0  0
 23 24  1  0  0  0  0
 24 25  1  0  0  0  0
 25 26  1  6  0  0  0
 26 27  1  0  0  0  0
 27 28  2  0  0  0  0
 27 29  2  0  0  0  0
 27 30  1  0  0  0  0
 30 31  4  0  0  0  0
 31 32  4  0  0  0  0
 32 33  4  0  0  0  0
 33 34  1  0  0  0  0
 34 35  1  0  0  0  0
 35 36  1  0  0  0  0
 36 37  1  0  0  0  0
 37 38  1  0  0  0  0
 37 39  1  0  0  0  0
 37 40  1  0  0  0  0
 34 40  1  0  0  0  0
 33 41  4  0  0  0  0
 30 41  4  0  0  0  0
 25 42  1  0  0  0  0
 22 42  1  0  0  0  0
 42 43  2  0  0  0  0
M  END
>  <CdId>
358471

>  <Mol Weight>
638.706

>  <Formula>
C27H32F2N6O6S2

>  <cmpd_chemblid>
CHEMBL3913495

>  <std_type>
Ki

>  <std_value>
750.0

>  <std_unit>
nM

>  <target_id>
CHEMBL2016

>  <target_name>
Coagulation factor IX

>  <organism>
Homo sapiens

>  <target_type>
SINGLE PROTEIN

$$$$

  Mrv0541 08052111042D          

 39 43  0  0  1  0            999 V2000
    8.6329   -2.2539    0.0000 C   0  0  0  0  0  0  0  0  0  0  0  0
    8.2204   -1.5395    0.0000 O   0  0  0  0  0  0  0  0  0  0  0  0
    7.3954   -1.5395    0.0000 C   0  0  0  0  0  0  0  0  0  0  0  0
    6.9829   -2.2539    0.0000 O   0  0  0  0  0  0  0  0  0  0  0  0
    6.9829   -0.8250    0.0000 N   0  0  0  0  0  0  0  0  0  0  0  0
    6.1579   -0.8250    0.0000 C   0  0  0  0  0  0  0  0  0  0  0  0
    5.7454   -0.1105    0.0000 C   0  0  0  0  0  0  0  0  0  0  0  0
    4.9204   -0.1105    0.0000 C   0  0  0  0  0  0  0  0  0  0  0  0
    4.5079   -0.8250    0.0000 C   0  0  0  0  0  0  0  0  0  0  0  0
    4.9204   -1.5395    0.0000 C   0  0  0  0  0  0  0  0  0  0  0  0
    5.7454   -1.5395    0.0000 C   0  0  0  0  0  0  0  0  0  0  0  0
    4.5079   -2.2539    0.0000 N   0  0  0  0  0  0  0  0  0  0  0  0
    4.9204   -2.9684    0.0000 C   0  0  0  0  0  0  0  0  0  0  0  0
    5.7454   -2.9684    0.0000 O   0  0  0  0  0  0  0  0  0  0  0  0
    4.5079   -3.6829    0.0000 C   0  0  2  0  0  0  0  0  0  0  0  0
    4.9204   -4.3974    0.0000 C   0  0  0  0  0  0  0  0  0  0  0  0
    3.6829   -3.6829    0.0000 C   0  0  0  0  0  0  0  0  0  0  0  0
    3.2704   -2.9684    0.0000 C   0  0  0  0  0  0  0  0  0  0  0  0
    2.4454   -2.9684    0.0000 C   0  0  0  0  0  0  0  0  0  0  0  0
    2.0329   -2.2539    0.0000 C   0  0  2  0  0  0  0  0  0  0  0  0
    1.2079   -2.2539    0.0000 N   0  0  0  0  0  0  0  0  0  0  0  0
    0.7954   -2.9684    0.0000 C   0  0  0  0  0  0  0  0  0  0  0  0
   -0.0296   -2.9684    0.0000 C   0  0  0  0  0  0  0  0  0  0  0  0
   -0.4421   -2.2539    0.0000 C   0  0  0  0  0  0  0  0  0  0  0  0
   -1.2671   -2.2539    0.0000 C   0  0  0  0  0  0  0  0  0  0  0  0
   -1.7520   -2.9214    0.0000 C   0  0  0  0  0  0  0  0  0  0  0  0
   -2.5367   -2.6664    0.0000 N   0  0  0  0  0  0  0  0  0  0  0  0
   -2.5367   -1.8414    0.0000 C   0  0  0  0  0  0  0  0  0  0  0  0
   -1.7520   -1.5865    0.0000 N   0  0  0  0  0  0  0  0  0  0  0  0
   -1.4971   -0.8019    0.0000 C   0  0  0  0  0  0  0  0  0  0  0  0
   -0.0296   -1.5395    0.0000 C   0  0  0  0  0  0  0  0  0  0  0  0
    0.7954   -1.5395    0.0000 C   0  0  0  0  0  0  0  0  0  0  0  0
    1.2079   -0.8250    0.0000 O   0  0  0  0  0  0  0  0  0  0  0  0
    2.4454   -1.5395    0.0000 C   0  0  0  0  0  0  0  0  0  0  0  0
    3.2704   -1.5395    0.0000 C   0  0  0  0  0  0  0  0  0  0  0  0
    3.6829   -0.8250    0.0000 C   0  0  0  0  0  0  0  0  0  0  0  0
    3.2704   -0.1105    0.0000 C   0  0  0  0  0  0  0  0  0  0  0  0
    2.4454   -0.1105    0.0000 C   0  0  0  0  0  0  0  0  0  0  0  0
    2.0329   -0.8250    0.0000 N   0  0  0  0  0  0  0  0  0  0  0  0
  1  2  1  0  0  0  0
  2  3  1  0  0  0  0
  3  4  2  0  0  0  0
  3  5  1  0  0  0  0
  5  6  1  0  0  0  0
  6  7  4  0  0  0  0
  7  8  4  0  0  0  0
  8  9  4  0  0  0  0
  9 10  4  0  0  0  0
 10 11  4  0  0  0  0
  6 11  4  0  0  0  0
 10 12  1  0  0  0  0
 12 13  1  0  0  0  0
 13 14  2  0  0  0  0
 13 15  1  0  0  0  0
 15 16  1  6  0  0  0
 15 17  1  0  0  0  0
 17 18  1  0  0  0  0
 18 19  1  0  0  0  0
 19 20  1  0  0  0  0
 20 21  1  6  0  0  0
 21 22  1  0  0  0  0
 22 23  1  0  0  0  0
 23 24  1  0  0  0  0
 24 25  1  0  0  0  0
 25 26  4  0  0  0  0
 26 27  4  0  0  0  0
 27 28  4  0  0  0  0
 28 29  4  0  0  0  0
 25 29  4  0  0  0  0
 29 30  1  0  0  0  0
 24 31  2  0  0  0  0
 31 32  1  0  0  0  0
 21 32  1  0  0  0  0
 32 33  2  0  0  0  0
 20 34  1  0  0  0  0
 34 35  4  0  0  0  0
 35 36  4  0  0  0  0
  9 36  1  0  0  0  0
 36 37  4  0  0  0  0
 37 38  4  0  0  0  0
 38 39  4  0  0  0  0
 34 39  4  0  0  0  0
M  END
>  <CdId>
358472

>  <Mol Weight>
528.6022

>  <Formula>
C29H32N6O4

>  <cmpd_chemblid>
CHEMBL4113295

>  <std_type>
Ki

>  <std_value>
407.6

>  <std_unit>
nM

>  <target_id>
CHEMBL2016

>  <target_name>
Coagulation factor IX

>  <organism>
Homo sapiens

>  <target_type>
SINGLE PROTEIN

$$$$

  Mrv0541 08052111042D          

 39 44  0  0  0  0            999 V2000
   11.5058    1.7798    0.0000 N   0  0  0  0  0  0  0  0  0  0  0  0
   10.7914    1.3673    0.0000 C   0  0  0  0  0  0  0  0  0  0  0  0
   10.7914    0.5423    0.0000 N   0  0  0  0  0  0  0  0  0  0  0  0
   10.0769    1.7798    0.0000 C   0  0  0  0  0  0  0  0  0  0  0  0
   10.0769    2.6048    0.0000 C   0  0  0  0  0  0  0  0  0  0  0  0
    9.3624    3.0173    0.0000 C   0  0  0  0  0  0  0  0  0  0  0  0
    8.6480    2.6048    0.0000 C   0  0  0  0  0  0  0  0  0  0  0  0
    7.8633    2.8597    0.0000 N   0  0  0  0  0  0  0  0  0  0  0  0
    7.3784    2.1923    0.0000 C   0  0  0  0  0  0  0  0  0  0  0  0
    7.8633    1.5248    0.0000 C   0  0  0  0  0  0  0  0  0  0  0  0
    7.6084    0.7402    0.0000 C   0  0  0  0  0  0  0  0  0  0  0  0
    6.8014    0.5687    0.0000 C   0  0  0  0  0  0  0  0  0  0  0  0
    6.2494    1.1818    0.0000 C   0  0  0  0  0  0  0  0  0  0  0  0
    5.4424    1.0103    0.0000 C   0  0  0  0  0  0  0  0  0  0  0  0
    4.8904    1.6234    0.0000 C   0  0  0  0  0  0  0  0  0  0  0  0
    5.1453    2.4080    0.0000 C   0  0  0  0  0  0  0  0  0  0  0  0
    5.9523    2.5795    0.0000 C   0  0  0  0  0  0  0  0  0  0  0  0
    6.5043    1.9664    0.0000 C   0  0  0  0  0  0  0  0  0  0  0  0
    8.1604    0.1271    0.0000 C   0  0  0  0  0  0  0  0  0  0  0  0
    8.9674    0.2987    0.0000 O   0  0  0  0  0  0  0  0  0  0  0  0
    7.9055   -0.6575    0.0000 N   0  0  0  0  0  0  0  0  0  0  0  0
    8.4575   -1.2706    0.0000 C   0  0  0  0  0  0  0  0  0  0  0  0
    8.2026   -2.0552    0.0000 C   0  0  0  0  0  0  0  0  0  0  0  0
    8.7546   -2.6683    0.0000 C   0  0  0  0  0  0  0  0  0  0  0  0
    8.4997   -3.4529    0.0000 C   0  0  0  0  0  0  0  0  0  0  0  0
    7.6927   -3.6245    0.0000 C   0  0  0  0  0  0  0  0  0  0  0  0
    7.4378   -4.4091    0.0000 N   0  0  0  0  0  0  0  0  0  0  0  0
    7.9227   -5.0765    0.0000 C   0  0  0  0  0  0  0  0  0  0  0  0
    7.4378   -5.7440    0.0000 N   0  0  0  0  0  0  0  0  0  0  0  0
    6.6531   -5.4890    0.0000 C   0  0  0  0  0  0  0  0  0  0  0  0
    5.9387   -5.9015    0.0000 C   0  0  0  0  0  0  0  0  0  0  0  0
    5.2242   -5.4890    0.0000 C   0  0  0  0  0  0  0  0  0  0  0  0
    5.2242   -4.6640    0.0000 C   0  0  0  0  0  0  0  0  0  0  0  0
    5.9387   -4.2515    0.0000 C   0  0  0  0  0  0  0  0  0  0  0  0
    6.6531   -4.6640    0.0000 C   0  0  0  0  0  0  0  0  0  0  0  0
    7.1407   -3.0114    0.0000 C   0  0  0  0  0  0  0  0  0  0  0  0
    7.3956   -2.2267    0.0000 C   0  0  0  0  0  0  0  0  0  0  0  0
    8.6480    1.7798    0.0000 C   0  0  0  0  0  0  0  0  0  0  0  0
    9.3624    1.3673    0.0000 C   0  0  0  0  0  0  0  0  0  0  0  0
  1  2  2  0  0  0  0
  2  3  1  0  0  0  0
  2  4  1  0  0  0  0
  4  5  4  0  0  0  0
  5  6  4  0  0  0  0
  6  7  4  0  0  0  0
  7  8  4  0  0  0  0
  8  9  4  0  0  0  0
  9 10  4  0  0  0  0
 10 11  1  0  0  0  0
 11 12  1  0  0  0  0
 12 13  1  0  0  0  0
 13 14  4  0  0  0  0
 14 15  4  0  0  0  0
 15 16  4  0  0  0  0
 16 17  4  0  0  0  0
 17 18  4  0  0  0  0
 13 18  4  0  0  0  0
 11 19  1  0  0  0  0
 19 20  2  0  0  0  0
 19 21  1  0  0  0  0
 21 22  1  0  0  0  0
 22 23  1  0  0  0  0
 23 24  4  0  0  0  0
 24 25  4  0  0  0  0
 25 26  4  0  0  0  0
 26 27  1  0  0  0  0
 27 28  4  0  0  0  0
 28 29  4  0  0  0  0
 29 30  4  0  0  0  0
 30 31  4  0  0  0  0
 31 32  4  0  0  0  0
 32 33  4  0  0  0  0
 33 34  4  0  0  0  0
 34 35  4  0  0  0  0
 30 35  4  0  0  0  0
 27 35  4  0  0  0  0
 26 36  4  0  0  0  0
 36 37  4  0  0  0  0
 23 37  4  0  0  0  0
 10 38  4  0  0  0  0
  7 38  4  0  0  0  0
 38 39  4  0  0  0  0
  4 39  4  0  0  0  0
M  STY  1   1 DAT
M  SAL   1  1   8
M  SDT   1 MRV_IMPLICIT_H                                        
M  SDD   1     0.0000    0.0000    DR    ALL  0       0  
M  SED   1 IMPL_H1
M  END
>  <CdId>
358473

>  <Mol Weight>
512.6043

>  <Formula>
C32H28N6O

>  <cmpd_chemblid>
CHEMBL185786

>  <std_type>
Ki

>  <std_value>
310.0

>  <std_unit>
nM

>  <target_id>
CHEMBL2016

>  <target_name>
Coagulation factor IX

>  <organism>
Homo sapiens

>  <target_type>
SINGLE PROTEIN

$$$$

  Mrv0541 08052111042D          

 34 38  0  0  1  0            999 V2000
    0.9636    9.5977    0.0000 C   0  0  0  0  0  0  0  0  0  0  0  0
    0.6280    8.8440    0.0000 N   0  0  0  0  0  0  0  0  0  0  0  0
    1.1129    8.1766    0.0000 C   0  0  0  0  0  0  0  0  0  0  0  0
    0.7774    7.4229    0.0000 C   0  0  0  0  0  0  0  0  0  0  0  0
    1.2623    6.7555    0.0000 C   0  0  0  0  0  0  0  0  0  0  0  0
    2.0828    6.8417    0.0000 C   0  0  0  0  0  0  0  0  0  0  0  0
    2.5677    6.1743    0.0000 C   0  0  0  0  0  0  0  0  0  0  0  0
    2.2321    5.4206    0.0000 C   0  0  0  0  0  0  0  0  0  0  0  0
    2.7171    4.7532    0.0000 C   0  0  0  0  0  0  0  0  0  0  0  0
    3.5375    4.8394    0.0000 O   0  0  0  0  0  0  0  0  0  0  0  0
    2.3815    3.9995    0.0000 N   0  0  0  0  0  0  0  0  0  0  0  0
    2.8664    3.3320    0.0000 C   0  0  2  0  0  0  0  0  0  0  0  0
    3.6914    3.3320    0.0000 C   0  0  0  0  0  0  0  0  0  0  0  0
    3.9464    2.5474    0.0000 C   0  0  0  0  0  0  0  0  0  0  0  0
    3.2789    2.0625    0.0000 N   0  0  0  0  0  0  0  0  0  0  0  0
    3.2789    1.2375    0.0000 C   0  0  0  0  0  0  0  0  0  0  0  0
    3.9934    0.8250    0.0000 N   0  0  0  0  0  0  0  0  0  0  0  0
    3.9934    0.0000    0.0000 C   0  0  0  0  0  0  0  0  0  0  0  0
    3.2789   -0.4125    0.0000 C   0  0  0  0  0  0  0  0  0  0  0  0
    3.2789   -1.2375    0.0000 Cl  0  0  0  0  0  0  0  0  0  0  0  0
    2.5645    0.0000    0.0000 C   0  0  0  0  0  0  0  0  0  0  0  0
    1.7798   -0.2549    0.0000 C   0  0  0  0  0  0  0  0  0  0  0  0
    1.5249   -1.0396    0.0000 N   0  0  0  0  0  0  0  0  0  0  0  0
    1.2949    0.4125    0.0000 N   0  0  0  0  0  0  0  0  0  0  0  0
    1.7798    1.0799    0.0000 O   0  0  0  0  0  0  0  0  0  0  0  0
    2.5645    0.8250    0.0000 C   0  0  0  0  0  0  0  0  0  0  0  0
    2.6115    2.5474    0.0000 C   0  0  0  0  0  0  0  0  0  0  0  0
    1.4117    5.3344    0.0000 C   0  0  0  0  0  0  0  0  0  0  0  0
    1.0761    4.5807    0.0000 Cl  0  0  0  0  0  0  0  0  0  0  0  0
    0.9267    6.0018    0.0000 C   0  0  0  0  0  0  0  0  0  0  0  0
   -0.0431    7.3367    0.0000 C   0  0  0  0  0  0  0  0  0  0  0  0
   -0.5280    8.0041    0.0000 C   0  0  0  0  0  0  0  0  0  0  0  0
   -0.1925    8.7578    0.0000 C   0  0  0  0  0  0  0  0  0  0  0  0
   -0.6774    9.4252    0.0000 O   0  0  0  0  0  0  0  0  0  0  0  0
  1  2  1  0  0  0  0
  2  3  4  0  0  0  0
  3  4  4  0  0  0  0
  4  5  1  0  0  0  0
  5  6  4  0  0  0  0
  6  7  4  0  0  0  0
  7  8  4  0  0  0  0
  8  9  1  0  0  0  0
  9 10  2  0  0  0  0
  9 11  1  0  0  0  0
 12 11  1  6  0  0  0
 12 13  1  0  0  0  0
 13 14  1  0  0  0  0
 14 15  1  0  0  0  0
 15 16  1  0  0  0  0
 16 17  4  0  0  0  0
 17 18  4  0  0  0  0
 18 19  4  0  0  0  0
 19 20  1  0  0  0  0
 19 21  4  0  0  0  0
 21 22  4  0  0  0  0
 22 23  1  0  0  0  0
 22 24  4  0  0  0  0
 24 25  4  0  0  0  0
 25 26  4  0  0  0  0
 16 26  4  0  0  0  0
 21 26  4  0  0  0  0
 15 27  1  0  0  0  0
 12 27  1  0  0  0  0
  8 28  4  0  0  0  0
 28 29  1  0  0  0  0
 28 30  4  0  0  0  0
  5 30  4  0  0  0  0
  4 31  4  0  0  0  0
 31 32  4  0  0  0  0
 32 33  4  0  0  0  0
  2 33  4  0  0  0  0
 33 34  2  0  0  0  0
M  END
>  <CdId>
358474

>  <Mol Weight>
499.349

>  <Formula>
C23H20Cl2N6O3

>  <cmpd_chemblid>
CHEMBL4095415

>  <std_type>
Ki

>  <std_value>
9.0

>  <std_unit>
nM

>  <target_id>
CHEMBL2016

>  <target_name>
Coagulation factor IX

>  <organism>
Homo sapiens

>  <target_type>
SINGLE PROTEIN

$$$$

  Mrv0541 08052111042D          

 37 42  0  0  1  0            999 V2000
    9.7734   -7.0583    0.0000 C   0  0  0  0  0  0  0  0  0  0  0  0
    9.0737   -6.6211    0.0000 C   0  0  0  0  0  0  0  0  0  0  0  0
    9.1025   -5.7966    0.0000 C   0  0  0  0  0  0  0  0  0  0  0  0
    8.4029   -5.3594    0.0000 C   0  0  0  0  0  0  0  0  0  0  0  0
    7.6744   -5.7467    0.0000 C   0  0  0  0  0  0  0  0  0  0  0  0
    6.8992   -5.4646    0.0000 C   0  0  0  0  0  0  0  0  0  0  0  0
    6.3913   -6.1147    0.0000 C   0  0  0  0  0  0  0  0  0  0  0  0
    6.8526   -6.7986    0.0000 N   0  0  0  0  0  0  0  0  0  0  0  0
    7.6456   -6.5712    0.0000 N   0  0  0  0  0  0  0  0  0  0  0  0
    8.3453   -7.0084    0.0000 C   0  0  0  0  0  0  0  0  0  0  0  0
    5.5743   -5.9999    0.0000 C   0  0  0  0  0  0  0  0  0  0  0  0
    5.2653   -5.2349    0.0000 C   0  0  0  0  0  0  0  0  0  0  0  0
    5.7732   -4.5848    0.0000 C   0  0  1  0  0  0  0  0  0  0  0  0
    5.0447   -4.1975    0.0000 C   0  0  0  0  0  0  0  0  0  0  0  0
    6.0281   -3.8002    0.0000 N   0  0  0  0  0  0  0  0  0  0  0  0
    5.4761   -3.1871    0.0000 C   0  0  0  0  0  0  0  0  0  0  0  0
    4.6691   -3.3586    0.0000 O   0  0  0  0  0  0  0  0  0  0  0  0
    5.7310   -2.4025    0.0000 C   0  0  0  0  0  0  0  0  0  0  0  0
    5.1790   -1.7894    0.0000 C   0  0  0  0  0  0  0  0  0  0  0  0
    5.4339   -1.0048    0.0000 C   0  0  0  0  0  0  0  0  0  0  0  0
    6.2409   -0.8332    0.0000 C   0  0  0  0  0  0  0  0  0  0  0  0
    6.4958   -0.0486    0.0000 N   0  0  0  0  0  0  0  0  0  0  0  0
    6.0109    0.6188    0.0000 C   0  0  0  0  0  0  0  0  0  0  0  0
    6.4958    1.2863    0.0000 N   0  0  0  0  0  0  0  0  0  0  0  0
    7.2805    1.0313    0.0000 C   0  0  0  0  0  0  0  0  0  0  0  0
    7.9949    1.4438    0.0000 C   0  0  0  0  0  0  0  0  0  0  0  0
    8.7094    1.0313    0.0000 C   0  0  0  0  0  0  0  0  0  0  0  0
    9.4239    1.4438    0.0000 C   0  0  0  0  0  0  0  0  0  0  0  0
    9.4239    2.2688    0.0000 O   0  0  0  0  0  0  0  0  0  0  0  0
   10.1383    1.0313    0.0000 O   0  0  0  0  0  0  0  0  0  0  0  0
    8.7094    0.2063    0.0000 C   0  0  0  0  0  0  0  0  0  0  0  0
    7.9949   -0.2062    0.0000 C   0  0  0  0  0  0  0  0  0  0  0  0
    7.2805    0.2063    0.0000 C   0  0  0  0  0  0  0  0  0  0  0  0
    6.7929   -1.4463    0.0000 C   0  0  0  0  0  0  0  0  0  0  0  0
    6.5380   -2.2310    0.0000 C   0  0  0  0  0  0  0  0  0  0  0  0
    7.0900   -2.8440    0.0000 Cl  0  0  0  0  0  0  0  0  0  0  0  0
    6.5901   -4.6996    0.0000 C   0  0  0  0  0  0  0  0  0  0  0  0
  1  2  1  0  0  0  0
  2  3  4  0  0  0  0
  3  4  4  0  0  0  0
  4  5  4  0  0  0  0
  5  6  4  0  0  0  0
  6  7  4  0  0  0  0
  7  8  4  0  0  0  0
  8  9  4  0  0  0  0
  5  9  4  0  0  0  0
  9 10  4  0  0  0  0
  2 10  4  0  0  0  0
  7 11  1  0  0  0  0
 11 12  1  0  0  0  0
 12 13  1  0  0  0  0
 13 14  1  6  0  0  0
 13 15  1  1  0  0  0
 15 16  1  0  0  0  0
 16 17  2  0  0  0  0
 16 18  1  0  0  0  0
 18 19  4  0  0  0  0
 19 20  4  0  0  0  0
 20 21  4  0  0  0  0
 21 22  1  0  0  0  0
 22 23  4  0  0  0  0
 23 24  4  0  0  0  0
 24 25  4  0  0  0  0
 25 26  4  0  0  0  0
 26 27  4  0  0  0  0
 27 28  1  0  0  0  0
 28 29  2  0  0  0  0
 28 30  1  0  0  0  0
 27 31  4  0  0  0  0
 31 32  4  0  0  0  0
 32 33  4  0  0  0  0
 25 33  4  0  0  0  0
 22 33  4  0  0  0  0
 21 34  4  0  0  0  0
 34 35  4  0  0  0  0
 18 35  4  0  0  0  0
 35 36  1  0  0  0  0
 13 37  1  0  0  0  0
  6 37  1  0  0  0  0
M  END
>  <CdId>
358475

>  <Mol Weight>
513.975

>  <Formula>
C28H24ClN5O3

>  <cmpd_chemblid>
CHEMBL3628955

>  <std_type>
Ki

>  <std_value>
10.5

>  <std_unit>
nM

>  <target_id>
CHEMBL2016

>  <target_name>
Coagulation factor IX

>  <organism>
Homo sapiens

>  <target_type>
SINGLE PROTEIN

$$$$

  Mrv0541 08052111042D          

 42 46  0  0  1  0            999 V2000
    8.6329   -2.2539    0.0000 C   0  0  0  0  0  0  0  0  0  0  0  0
    8.2204   -1.5395    0.0000 O   0  0  0  0  0  0  0  0  0  0  0  0
    7.3954   -1.5395    0.0000 C   0  0  0  0  0  0  0  0  0  0  0  0
    6.9829   -2.2539    0.0000 O   0  0  0  0  0  0  0  0  0  0  0  0
    6.9829   -0.8250    0.0000 N   0  0  0  0  0  0  0  0  0  0  0  0
    6.1579   -0.8250    0.0000 C   0  0  0  0  0  0  0  0  0  0  0  0
    5.7454   -0.1105    0.0000 C   0  0  0  0  0  0  0  0  0  0  0  0
    4.9204   -0.1105    0.0000 C   0  0  0  0  0  0  0  0  0  0  0  0
    4.5079   -0.8250    0.0000 C   0  0  0  0  0  0  0  0  0  0  0  0
    4.9204   -1.5395    0.0000 C   0  0  0  0  0  0  0  0  0  0  0  0
    5.7454   -1.5395    0.0000 C   0  0  0  0  0  0  0  0  0  0  0  0
    4.5079   -2.2539    0.0000 N   0  0  0  0  0  0  0  0  0  0  0  0
    4.9204   -2.9684    0.0000 C   0  0  0  0  0  0  0  0  0  0  0  0
    5.7454   -2.9684    0.0000 O   0  0  0  0  0  0  0  0  0  0  0  0
    4.5079   -3.6829    0.0000 C   0  0  2  0  0  0  0  0  0  0  0  0
    4.9204   -4.3974    0.0000 C   0  0  0  0  0  0  0  0  0  0  0  0
    3.6829   -3.6829    0.0000 C   0  0  0  0  0  0  0  0  0  0  0  0
    3.2704   -2.9684    0.0000 C   0  0  0  0  0  0  0  0  0  0  0  0
    2.4454   -2.9684    0.0000 C   0  0  0  0  0  0  0  0  0  0  0  0
    2.0329   -2.2539    0.0000 C   0  0  2  0  0  0  0  0  0  0  0  0
    1.2079   -2.2539    0.0000 N   0  0  0  0  0  0  0  0  0  0  0  0
    0.7954   -2.9684    0.0000 C   0  0  0  0  0  0  0  0  0  0  0  0
   -0.0296   -2.9684    0.0000 C   0  0  0  0  0  0  0  0  0  0  0  0
   -0.4421   -2.2539    0.0000 C   0  0  0  0  0  0  0  0  0  0  0  0
   -1.2671   -2.2539    0.0000 C   0  0  0  0  0  0  0  0  0  0  0  0
   -1.6796   -2.9684    0.0000 C   0  0  0  0  0  0  0  0  0  0  0  0
   -2.5046   -2.9684    0.0000 C   0  0  0  0  0  0  0  0  0  0  0  0
   -2.9171   -2.2539    0.0000 C   0  0  0  0  0  0  0  0  0  0  0  0
   -3.7421   -2.2539    0.0000 O   0  0  0  0  0  0  0  0  0  0  0  0
   -4.1546   -2.9684    0.0000 C   0  0  0  0  0  0  0  0  0  0  0  0
   -2.5046   -1.5395    0.0000 C   0  0  0  0  0  0  0  0  0  0  0  0
   -2.9171   -0.8250    0.0000 Cl  0  0  0  0  0  0  0  0  0  0  0  0
   -1.6796   -1.5395    0.0000 C   0  0  0  0  0  0  0  0  0  0  0  0
   -0.0296   -1.5395    0.0000 C   0  0  0  0  0  0  0  0  0  0  0  0
    0.7954   -1.5395    0.0000 C   0  0  0  0  0  0  0  0  0  0  0  0
    1.2079   -0.8250    0.0000 O   0  0  0  0  0  0  0  0  0  0  0  0
    2.4454   -1.5395    0.0000 C   0  0  0  0  0  0  0  0  0  0  0  0
    3.2704   -1.5395    0.0000 C   0  0  0  0  0  0  0  0  0  0  0  0
    3.6829   -0.8250    0.0000 C   0  0  0  0  0  0  0  0  0  0  0  0
    3.2704   -0.1105    0.0000 C   0  0  0  0  0  0  0  0  0  0  0  0
    2.4454   -0.1105    0.0000 C   0  0  0  0  0  0  0  0  0  0  0  0
    2.0329   -0.8250    0.0000 N   0  0  0  0  0  0  0  0  0  0  0  0
  1  2  1  0  0  0  0
  2  3  1  0  0  0  0
  3  4  2  0  0  0  0
  3  5  1  0  0  0  0
  5  6  1  0  0  0  0
  6  7  4  0  0  0  0
  7  8  4  0  0  0  0
  8  9  4  0  0  0  0
  9 10  4  0  0  0  0
 10 11  4  0  0  0  0
  6 11  4  0  0  0  0
 10 12  1  0  0  0  0
 12 13  1  0  0  0  0
 13 14  2  0  0  0  0
 13 15  1  0  0  0  0
 15 16  1  6  0  0  0
 15 17  1  0  0  0  0
 17 18  1  0  0  0  0
 18 19  1  0  0  0  0
 19 20  1  0  0  0  0
 20 21  1  6  0  0  0
 21 22  1  0  0  0  0
 22 23  1  0  0  0  0
 23 24  1  0  0  0  0
 24 25  1  0  0  0  0
 25 26  4  0  0  0  0
 26 27  4  0  0  0  0
 27 28  4  0  0  0  0
 28 29  1  0  0  0  0
 29 30  1  0  0  0  0
 28 31  4  0  0  0  0
 31 32  1  0  0  0  0
 31 33  4  0  0  0  0
 25 33  4  0  0  0  0
 24 34  2  0  0  0  0
 34 35  1  0  0  0  0
 21 35  1  0  0  0  0
 35 36  2  0  0  0  0
 20 37  1  0  0  0  0
 37 38  4  0  0  0  0
 38 39  4  0  0  0  0
  9 39  1  0  0  0  0
 39 40  4  0  0  0  0
 40 41  4  0  0  0  0
 41 42  4  0  0  0  0
 37 42  4  0  0  0  0
M  END
>  <CdId>
358477

>  <Mol Weight>
589.081

>  <Formula>
C32H33ClN4O5

>  <cmpd_chemblid>
CHEMBL4114999

>  <std_type>
Ki

>  <std_value>
320.8

>  <std_unit>
nM

>  <target_id>
CHEMBL2016

>  <target_name>
Coagulation factor IX

>  <organism>
Homo sapiens

>  <target_type>
SINGLE PROTEIN

$$$$

  Mrv0541 08052111042D          

 40 43  0  0  0  0            999 V2000
    1.6738   -1.2047    0.0000 C   0  0  0  0  0  0  0  0  0  0  0  0
    1.9287   -0.4201    0.0000 C   0  0  0  0  0  0  0  0  0  0  0  0
    1.3767    0.1930    0.0000 C   0  0  0  0  0  0  0  0  0  0  0  0
    0.5697    0.0215    0.0000 C   0  0  0  0  0  0  0  0  0  0  0  0
    0.0177    0.6346    0.0000 O   0  0  0  0  0  0  0  0  0  0  0  0
    0.3148   -0.7631    0.0000 N   0  0  0  0  0  0  0  0  0  0  0  0
   -0.4922   -0.9347    0.0000 C   0  0  0  0  0  0  0  0  0  0  0  0
   -0.7471   -1.7193    0.0000 C   0  0  0  0  0  0  0  0  0  0  0  0
   -1.5541   -1.8908    0.0000 C   0  0  0  0  0  0  0  0  0  0  0  0
   -2.1061   -1.2777    0.0000 C   0  0  0  0  0  0  0  0  0  0  0  0
   -2.9131   -1.4493    0.0000 N   0  0  0  0  0  0  0  0  0  0  0  0
   -3.2486   -2.2029    0.0000 C   0  0  0  0  0  0  0  0  0  0  0  0
   -4.0691   -2.1167    0.0000 N   0  0  0  0  0  0  0  0  0  0  0  0
   -4.2406   -1.3097    0.0000 C   0  0  0  0  0  0  0  0  0  0  0  0
   -4.9551   -0.8972    0.0000 C   0  0  0  0  0  0  0  0  0  0  0  0
   -4.9551   -0.0722    0.0000 C   0  0  0  0  0  0  0  0  0  0  0  0
   -4.2406    0.3403    0.0000 C   0  0  0  0  0  0  0  0  0  0  0  0
   -3.5262   -0.0722    0.0000 C   0  0  0  0  0  0  0  0  0  0  0  0
   -3.5262   -0.8972    0.0000 C   0  0  0  0  0  0  0  0  0  0  0  0
   -1.8512   -0.4931    0.0000 C   0  0  0  0  0  0  0  0  0  0  0  0
   -1.0442   -0.3216    0.0000 C   0  0  0  0  0  0  0  0  0  0  0  0
    1.6317    0.9776    0.0000 C   0  0  0  0  0  0  0  0  0  0  0  0
    1.1467    1.6451    0.0000 C   0  0  0  0  0  0  0  0  0  0  0  0
    1.6317    2.3125    0.0000 S   0  0  0  0  0  0  0  0  0  0  0  0
    2.4163    2.0576    0.0000 C   0  0  0  0  0  0  0  0  0  0  0  0
    3.1307    2.4701    0.0000 C   0  0  0  0  0  0  0  0  0  0  0  0
    3.8452    2.0576    0.0000 C   0  0  0  0  0  0  0  0  0  0  0  0
    3.8452    1.2326    0.0000 C   0  0  0  0  0  0  0  0  0  0  0  0
    4.5597    0.8201    0.0000 C   0  0  0  0  0  0  0  0  0  0  0  0
    5.2742    1.2326    0.0000 N   0  0  0  0  0  0  0  0  0  0  0  0
    4.5597   -0.0049    0.0000 N   0  0  0  0  0  0  0  0  0  0  0  0
    3.1307    0.8201    0.0000 C   0  0  0  0  0  0  0  0  0  0  0  0
    2.4163    1.2326    0.0000 C   0  0  0  0  0  0  0  0  0  0  0  0
    7.3883   -0.8839    0.0000 O   0  0  0  0  0  0  0  0  0  0  0  0
    8.1027   -0.4714    0.0000 C   0  0  0  0  0  0  0  0  0  0  0  0
    8.8172   -0.8839    0.0000 O   0  0  0  0  0  0  0  0  0  0  0  0
    8.1027    0.3536    0.0000 C   0  0  0  0  0  0  0  0  0  0  0  0
    8.1027    1.1786    0.0000 F   0  0  0  0  0  0  0  0  0  0  0  0
    8.9277    0.3536    0.0000 F   0  0  0  0  0  0  0  0  0  0  0  0
    7.2777    0.3536    0.0000 F   0  0  0  0  0  0  0  0  0  0  0  0
  1  2  1  0  0  0  0
  2  3  1  0  0  0  0
  3  4  1  0  0  0  0
  4  5  2  0  0  0  0
  4  6  1  0  0  0  0
  6  7  1  0  0  0  0
  7  8  4  0  0  0  0
  8  9  4  0  0  0  0
  9 10  4  0  0  0  0
 10 11  1  0  0  0  0
 11 12  4  0  0  0  0
 12 13  4  0  0  0  0
 13 14  4  0  0  0  0
 14 15  4  0  0  0  0
 15 16  4  0  0  0  0
 16 17  4  0  0  0  0
 17 18  4  0  0  0  0
 18 19  4  0  0  0  0
 14 19  4  0  0  0  0
 11 19  4  0  0  0  0
 10 20  4  0  0  0  0
 20 21  4  0  0  0  0
  7 21  4  0  0  0  0
  3 22  1  0  0  0  0
 22 23  4  0  0  0  0
 23 24  4  0  0  0  0
 24 25  4  0  0  0  0
 25 26  4  0  0  0  0
 26 27  4  0  0  0  0
 27 28  4  0  0  0  0
 28 29  1  0  0  0  0
 29 30  2  0  0  0  0
 29 31  1  0  0  0  0
 28 32  4  0  0  0  0
 32 33  4  0  0  0  0
 22 33  4  0  0  0  0
 25 33  4  0  0  0  0
 34 35  2  0  0  0  0
 35 36  1  0  0  0  0
 35 37  1  0  0  0  0
 37 38  1  0  0  0  0
 37 39  1  0  0  0  0
 37 40  1  0  0  0  0
M  END
>  <CdId>
358478

>  <Mol Weight>
567.582

>  <Formula>
C28H24F3N5O3S

>  <cmpd_chemblid>
CHEMBL361520

>  <std_type>
Ki

>  <std_value>
220.0

>  <std_unit>
nM

>  <target_id>
CHEMBL2016

>  <target_name>
Coagulation factor IX

>  <organism>
Homo sapiens

>  <target_type>
SINGLE PROTEIN

$$$$

  Mrv0541 08052111042D          

 40 44  0  0  1  0            999 V2000
    3.9849    3.9849    0.0000 C   0  0  0  0  0  0  0  0  0  0  0  0
    4.3974    3.2704    0.0000 C   0  0  2  0  0  0  0  0  0  0  0  0
    5.2224    3.2704    0.0000 C   0  0  0  0  0  0  0  0  0  0  0  0
    5.6349    2.5559    0.0000 C   0  0  0  0  0  0  0  0  0  0  0  0
    6.4599    2.5559    0.0000 C   0  0  0  0  0  0  0  0  0  0  0  0
    6.8724    1.8414    0.0000 C   0  0  2  0  0  0  0  0  0  0  0  0
    7.6974    1.8414    0.0000 N   0  0  0  0  0  0  0  0  0  0  0  0
    8.1099    2.5559    0.0000 C   0  0  0  0  0  0  0  0  0  0  0  0
    8.9349    2.5559    0.0000 C   0  0  0  0  0  0  0  0  0  0  0  0
    9.3474    1.8414    0.0000 C   0  0  0  0  0  0  0  0  0  0  0  0
   10.1724    1.8414    0.0000 C   0  0  0  0  0  0  0  0  0  0  0  0
   10.5849    2.5559    0.0000 C   0  0  0  0  0  0  0  0  0  0  0  0
   10.1724    3.2704    0.0000 C   0  0  0  0  0  0  0  0  0  0  0  0
    9.7599    3.9849    0.0000 N   0  0  0  0  0  0  0  0  0  0  0  0
   11.4099    2.5559    0.0000 C   0  0  0  0  0  0  0  0  0  0  0  0
   11.8224    1.8414    0.0000 C   0  0  0  0  0  0  0  0  0  0  0  0
   11.4099    1.1270    0.0000 C   0  0  0  0  0  0  0  0  0  0  0  0
   11.8224    0.4125    0.0000 Cl  0  0  0  0  0  0  0  0  0  0  0  0
   10.5849    1.1270    0.0000 C   0  0  0  0  0  0  0  0  0  0  0  0
   10.1724    0.4125    0.0000 F   0  0  0  0  0  0  0  0  0  0  0  0
    8.9349    1.1270    0.0000 C   0  0  0  0  0  0  0  0  0  0  0  0
    8.1099    1.1270    0.0000 C   0  0  0  0  0  0  0  0  0  0  0  0
    7.6974    0.4125    0.0000 O   0  0  0  0  0  0  0  0  0  0  0  0
    6.4599    1.1270    0.0000 C   0  0  0  0  0  0  0  0  0  0  0  0
    5.6349    1.1270    0.0000 C   0  0  0  0  0  0  0  0  0  0  0  0
    5.2224    0.4125    0.0000 C   0  0  0  0  0  0  0  0  0  0  0  0
    5.6349   -0.3020    0.0000 C   0  0  0  0  0  0  0  0  0  0  0  0
    6.4599   -0.3020    0.0000 C   0  0  0  0  0  0  0  0  0  0  0  0
    6.8724    0.4125    0.0000 N   0  0  0  0  0  0  0  0  0  0  0  0
    4.3974    0.4125    0.0000 C   0  0  0  0  0  0  0  0  0  0  0  0
    3.9849   -0.3020    0.0000 C   0  0  0  0  0  0  0  0  0  0  0  0
    3.1599   -0.3020    0.0000 C   0  0  0  0  0  0  0  0  0  0  0  0
    2.7474   -1.0164    0.0000 F   0  0  0  0  0  0  0  0  0  0  0  0
    2.7474    0.4125    0.0000 C   0  0  0  0  0  0  0  0  0  0  0  0
    1.9224    0.4125    0.0000 F   0  0  0  0  0  0  0  0  0  0  0  0
    3.1599    1.1270    0.0000 C   0  0  0  0  0  0  0  0  0  0  0  0
    3.9849    1.1270    0.0000 C   0  0  0  0  0  0  0  0  0  0  0  0
    4.3974    1.8414    0.0000 N   0  0  0  0  0  0  0  0  0  0  0  0
    3.9849    2.5559    0.0000 C   0  0  0  0  0  0  0  0  0  0  0  0
    3.1599    2.5559    0.0000 O   0  0  0  0  0  0  0  0  0  0  0  0
  2  1  1  6  0  0  0
  2  3  1  0  0  0  0
  3  4  1  0  0  0  0
  4  5  1  0  0  0  0
  5  6  1  0  0  0  0
  6  7  1  6  0  0  0
  7  8  1  0  0  0  0
  8  9  1  0  0  0  0
  9 10  1  0  0  0  0
 10 11  1  0  0  0  0
 11 12  4  0  0  0  0
 12 13  1  0  0  0  0
 13 14  3  0  0  0  0
 12 15  4  0  0  0  0
 15 16  4  0  0  0  0
 16 17  4  0  0  0  0
 17 18  1  0  0  0  0
 17 19  4  0  0  0  0
 11 19  4  0  0  0  0
 19 20  1  0  0  0  0
 10 21  2  0  0  0  0
 21 22  1  0  0  0  0
  7 22  1  0  0  0  0
 22 23  2  0  0  0  0
  6 24  1  0  0  0  0
 24 25  4  0  0  0  0
 25 26  4  0  0  0  0
 26 27  4  0  0  0  0
 27 28  4  0  0  0  0
 28 29  4  0  0  0  0
 24 29  4  0  0  0  0
 26 30  1  0  0  0  0
 30 31  4  0  0  0  0
 31 32  4  0  0  0  0
 32 33  1  0  0  0  0
 32 34  4  0  0  0  0
 34 35  1  0  0  0  0
 34 36  4  0  0  0  0
 36 37  4  0  0  0  0
 30 37  4  0  0  0  0
 37 38  1  0  0  0  0
 38 39  1  0  0  0  0
  2 39  1  0  0  0  0
 39 40  2  0  0  0  0
M  END
>  <CdId>
358479

>  <Mol Weight>
564.985

>  <Formula>
C30H24ClF3N4O2

>  <cmpd_chemblid>
CHEMBL4109163

>  <std_type>
Ki

>  <std_value>
3.26

>  <std_unit>
nM

>  <target_id>
CHEMBL2016

>  <target_name>
Coagulation factor IX

>  <organism>
Homo sapiens

>  <target_type>
SINGLE PROTEIN

$$$$

  Mrv0541 08052111042D          

 42 46  0  0  1  0            999 V2000
    8.6329   -2.2539    0.0000 C   0  0  0  0  0  0  0  0  0  0  0  0
    8.2204   -1.5395    0.0000 O   0  0  0  0  0  0  0  0  0  0  0  0
    7.3954   -1.5395    0.0000 C   0  0  0  0  0  0  0  0  0  0  0  0
    6.9829   -2.2539    0.0000 O   0  0  0  0  0  0  0  0  0  0  0  0
    6.9829   -0.8250    0.0000 N   0  0  0  0  0  0  0  0  0  0  0  0
    6.1579   -0.8250    0.0000 C   0  0  0  0  0  0  0  0  0  0  0  0
    5.7454   -0.1105    0.0000 C   0  0  0  0  0  0  0  0  0  0  0  0
    4.9204   -0.1105    0.0000 C   0  0  0  0  0  0  0  0  0  0  0  0
    4.5079   -0.8250    0.0000 C   0  0  0  0  0  0  0  0  0  0  0  0
    4.9204   -1.5395    0.0000 C   0  0  0  0  0  0  0  0  0  0  0  0
    5.7454   -1.5395    0.0000 C   0  0  0  0  0  0  0  0  0  0  0  0
    4.5079   -2.2539    0.0000 N   0  0  0  0  0  0  0  0  0  0  0  0
    4.9204   -2.9684    0.0000 C   0  0  0  0  0  0  0  0  0  0  0  0
    5.7454   -2.9684    0.0000 O   0  0  0  0  0  0  0  0  0  0  0  0
    4.5079   -3.6829    0.0000 C   0  0  2  0  0  0  0  0  0  0  0  0
    4.9204   -4.3974    0.0000 C   0  0  0  0  0  0  0  0  0  0  0  0
    3.6829   -3.6829    0.0000 C   0  0  0  0  0  0  0  0  0  0  0  0
    3.2704   -2.9684    0.0000 C   0  0  0  0  0  0  0  0  0  0  0  0
    2.4454   -2.9684    0.0000 C   0  0  0  0  0  0  0  0  0  0  0  0
    2.0329   -2.2539    0.0000 C   0  0  2  0  0  0  0  0  0  0  0  0
    1.2079   -2.2539    0.0000 N   0  0  0  0  0  0  0  0  0  0  0  0
    0.7954   -2.9684    0.0000 N   0  0  0  0  0  0  0  0  0  0  0  0
   -0.0296   -2.9684    0.0000 C   0  0  0  0  0  0  0  0  0  0  0  0
   -0.4421   -2.2539    0.0000 C   0  0  0  0  0  0  0  0  0  0  0  0
   -1.2671   -2.2539    0.0000 C   0  0  0  0  0  0  0  0  0  0  0  0
   -1.6796   -2.9684    0.0000 C   0  0  0  0  0  0  0  0  0  0  0  0
   -1.2671   -3.6829    0.0000 Br  0  0  0  0  0  0  0  0  0  0  0  0
   -2.5046   -2.9684    0.0000 C   0  0  0  0  0  0  0  0  0  0  0  0
   -2.9171   -2.2539    0.0000 C   0  0  0  0  0  0  0  0  0  0  0  0
   -2.5046   -1.5395    0.0000 C   0  0  0  0  0  0  0  0  0  0  0  0
   -2.9171   -0.8250    0.0000 Cl  0  0  0  0  0  0  0  0  0  0  0  0
   -1.6796   -1.5395    0.0000 C   0  0  0  0  0  0  0  0  0  0  0  0
   -1.2671   -0.8250    0.0000 F   0  0  0  0  0  0  0  0  0  0  0  0
   -0.0296   -1.5395    0.0000 C   0  0  0  0  0  0  0  0  0  0  0  0
    0.7954   -1.5395    0.0000 C   0  0  0  0  0  0  0  0  0  0  0  0
    1.2079   -0.8250    0.0000 O   0  0  0  0  0  0  0  0  0  0  0  0
    2.4454   -1.5395    0.0000 C   0  0  0  0  0  0  0  0  0  0  0  0
    3.2704   -1.5395    0.0000 C   0  0  0  0  0  0  0  0  0  0  0  0
    3.6829   -0.8250    0.0000 C   0  0  0  0  0  0  0  0  0  0  0  0
    3.2704   -0.1105    0.0000 C   0  0  0  0  0  0  0  0  0  0  0  0
    2.4454   -0.1105    0.0000 C   0  0  0  0  0  0  0  0  0  0  0  0
    2.0329   -0.8250    0.0000 N   0  0  0  0  0  0  0  0  0  0  0  0
  1  2  1  0  0  0  0
  2  3  1  0  0  0  0
  3  4  2  0  0  0  0
  3  5  1  0  0  0  0
  5  6  1  0  0  0  0
  6  7  4  0  0  0  0
  7  8  4  0  0  0  0
  8  9  4  0  0  0  0
  9 10  4  0  0  0  0
 10 11  4  0  0  0  0
  6 11  4  0  0  0  0
 10 12  1  0  0  0  0
 12 13  1  0  0  0  0
 13 14  2  0  0  0  0
 13 15  1  0  0  0  0
 15 16  1  6  0  0  0
 15 17  1  0  0  0  0
 17 18  1  0  0  0  0
 18 19  1  0  0  0  0
 19 20  1  0  0  0  0
 20 21  1  6  0  0  0
 21 22  4  0  0  0  0
 22 23  4  0  0  0  0
 23 24  4  0  0  0  0
 24 25  1  0  0  0  0
 25 26  4  0  0  0  0
 26 27  1  0  0  0  0
 26 28  4  0  0  0  0
 28 29  4  0  0  0  0
 29 30  4  0  0  0  0
 30 31  1  0  0  0  0
 30 32  4  0  0  0  0
 25 32  4  0  0  0  0
 32 33  1  0  0  0  0
 24 34  4  0  0  0  0
 34 35  4  0  0  0  0
 21 35  4  0  0  0  0
 35 36  2  0  0  0  0
 20 37  1  0  0  0  0
 37 38  4  0  0  0  0
 38 39  4  0  0  0  0
  9 39  1  0  0  0  0
 39 40  4  0  0  0  0
 40 41  4  0  0  0  0
 41 42  4  0  0  0  0
 37 42  4  0  0  0  0
M  END
>  <CdId>
358480

>  <Mol Weight>
654.914

>  <Formula>
C30H26BrClFN5O4

>  <cmpd_chemblid>
CHEMBL4113520

>  <std_type>
Ki

>  <std_value>
0.98

>  <std_unit>
nM

>  <target_id>
CHEMBL2016

>  <target_name>
Coagulation factor IX

>  <organism>
Homo sapiens

>  <target_type>
SINGLE PROTEIN

$$$$

  Mrv0541 08052111042D          

 43 47  0  0  1  0            999 V2000
    8.6329   -2.2539    0.0000 C   0  0  0  0  0  0  0  0  0  0  0  0
    8.2204   -1.5395    0.0000 O   0  0  0  0  0  0  0  0  0  0  0  0
    7.3954   -1.5395    0.0000 C   0  0  0  0  0  0  0  0  0  0  0  0
    6.9829   -2.2539    0.0000 O   0  0  0  0  0  0  0  0  0  0  0  0
    6.9829   -0.8250    0.0000 N   0  0  0  0  0  0  0  0  0  0  0  0
    6.1579   -0.8250    0.0000 C   0  0  0  0  0  0  0  0  0  0  0  0
    5.7454   -0.1105    0.0000 C   0  0  0  0  0  0  0  0  0  0  0  0
    4.9204   -0.1105    0.0000 C   0  0  0  0  0  0  0  0  0  0  0  0
    4.5079   -0.8250    0.0000 C   0  0  0  0  0  0  0  0  0  0  0  0
    4.9204   -1.5395    0.0000 C   0  0  0  0  0  0  0  0  0  0  0  0
    5.7454   -1.5395    0.0000 C   0  0  0  0  0  0  0  0  0  0  0  0
    4.5079   -2.2539    0.0000 N   0  0  0  0  0  0  0  0  0  0  0  0
    4.9204   -2.9684    0.0000 C   0  0  0  0  0  0  0  0  0  0  0  0
    5.7454   -2.9684    0.0000 O   0  0  0  0  0  0  0  0  0  0  0  0
    4.5079   -3.6829    0.0000 C   0  0  0  0  0  0  0  0  0  0  0  0
    5.2831   -3.9651    0.0000 C   0  0  0  0  0  0  0  0  0  0  0  0
    4.3646   -4.4954    0.0000 O   0  0  0  0  0  0  0  0  0  0  0  0
    3.6829   -3.6829    0.0000 C   0  0  0  0  0  0  0  0  0  0  0  0
    3.2704   -2.9684    0.0000 C   0  0  0  0  0  0  0  0  0  0  0  0
    2.4454   -2.9684    0.0000 C   0  0  0  0  0  0  0  0  0  0  0  0
    2.0329   -2.2539    0.0000 C   0  0  2  0  0  0  0  0  0  0  0  0
    1.2079   -2.2539    0.0000 N   0  0  0  0  0  0  0  0  0  0  0  0
    0.7954   -2.9684    0.0000 C   0  0  0  0  0  0  0  0  0  0  0  0
   -0.0296   -2.9684    0.0000 C   0  0  0  0  0  0  0  0  0  0  0  0
   -0.4421   -2.2539    0.0000 C   0  0  0  0  0  0  0  0  0  0  0  0
   -1.2671   -2.2539    0.0000 C   0  0  0  0  0  0  0  0  0  0  0  0
   -1.6796   -2.9684    0.0000 C   0  0  0  0  0  0  0  0  0  0  0  0
   -1.2671   -3.6829    0.0000 F   0  0  0  0  0  0  0  0  0  0  0  0
   -2.5046   -2.9684    0.0000 C   0  0  0  0  0  0  0  0  0  0  0  0
   -2.9171   -2.2539    0.0000 C   0  0  0  0  0  0  0  0  0  0  0  0
   -2.5046   -1.5395    0.0000 C   0  0  0  0  0  0  0  0  0  0  0  0
   -2.9171   -0.8250    0.0000 Cl  0  0  0  0  0  0  0  0  0  0  0  0
   -1.6796   -1.5395    0.0000 C   0  0  0  0  0  0  0  0  0  0  0  0
   -1.2671   -0.8250    0.0000 F   0  0  0  0  0  0  0  0  0  0  0  0
   -0.0296   -1.5395    0.0000 C   0  0  0  0  0  0  0  0  0  0  0  0
    0.7954   -1.5395    0.0000 C   0  0  0  0  0  0  0  0  0  0  0  0
    1.2079   -0.8250    0.0000 O   0  0  0  0  0  0  0  0  0  0  0  0
    2.4454   -1.5395    0.0000 C   0  0  0  0  0  0  0  0  0  0  0  0
    3.2704   -1.5395    0.0000 C   0  0  0  0  0  0  0  0  0  0  0  0
    3.6829   -0.8250    0.0000 C   0  0  0  0  0  0  0  0  0  0  0  0
    3.2704   -0.1105    0.0000 C   0  0  0  0  0  0  0  0  0  0  0  0
    2.4454   -0.1105    0.0000 C   0  0  0  0  0  0  0  0  0  0  0  0
    2.0329   -0.8250    0.0000 N   0  0  0  0  0  0  0  0  0  0  0  0
  1  2  1  0  0  0  0
  2  3  1  0  0  0  0
  3  4  2  0  0  0  0
  3  5  1  0  0  0  0
  5  6  1  0  0  0  0
  6  7  4  0  0  0  0
  7  8  4  0  0  0  0
  8  9  4  0  0  0  0
  9 10  4  0  0  0  0
 10 11  4  0  0  0  0
  6 11  4  0  0  0  0
 10 12  1  0  0  0  0
 12 13  1  0  0  0  0
 13 14  2  0  0  0  0
 13 15  1  0  0  0  0
 15 16  1  0  0  0  0
 15 17  1  0  0  0  0
 15 18  1  0  0  0  0
 18 19  1  0  0  0  0
 19 20  1  0  0  0  0
 20 21  1  0  0  0  0
 21 22  1  6  0  0  0
 22 23  1  0  0  0  0
 23 24  1  0  0  0  0
 24 25  1  0  0  0  0
 25 26  1  0  0  0  0
 26 27  4  0  0  0  0
 27 28  1  0  0  0  0
 27 29  4  0  0  0  0
 29 30  4  0  0  0  0
 30 31  4  0  0  0  0
 31 32  1  0  0  0  0
 31 33  4  0  0  0  0
 26 33  4  0  0  0  0
 33 34  1  0  0  0  0
 25 35  2  0  0  0  0
 35 36  1  0  0  0  0
 22 36  1  0  0  0  0
 36 37  2  0  0  0  0
 21 38  1  0  0  0  0
 38 39  4  0  0  0  0
 39 40  4  0  0  0  0
  9 40  1  0  0  0  0
 40 41  4  0  0  0  0
 41 42  4  0  0  0  0
 42 43  4  0  0  0  0
 38 43  4  0  0  0  0
M  END
>  <CdId>
358482

>  <Mol Weight>
611.036

>  <Formula>
C31H29ClF2N4O5

>  <cmpd_chemblid>
CHEMBL3906303

>  <std_type>
Ki

>  <std_value>
182.855

>  <std_unit>
nM

>  <target_id>
CHEMBL2016

>  <target_name>
Coagulation factor IX

>  <organism>
Homo sapiens

>  <target_type>
SINGLE PROTEIN

$$$$

  Mrv0541 08052111042D          

 43 47  0  0  1  0            999 V2000
    4.5375   -2.9684    0.0000 C   0  0  0  0  0  0  0  0  0  0  0  0
    4.1250   -2.2539    0.0000 O   0  0  0  0  0  0  0  0  0  0  0  0
    3.3000   -2.2539    0.0000 C   0  0  0  0  0  0  0  0  0  0  0  0
    2.8875   -2.9684    0.0000 O   0  0  0  0  0  0  0  0  0  0  0  0
    2.8875   -1.5395    0.0000 C   0  0  0  0  0  0  0  0  0  0  0  0
    3.3000   -0.8250    0.0000 C   0  0  0  0  0  0  0  0  0  0  0  0
    2.8875   -0.1105    0.0000 C   0  0  0  0  0  0  0  0  0  0  0  0
    2.0625   -0.1105    0.0000 C   0  0  0  0  0  0  0  0  0  0  0  0
    1.6500   -0.8250    0.0000 C   0  0  0  0  0  0  0  0  0  0  0  0
    2.0625   -1.5395    0.0000 C   0  0  0  0  0  0  0  0  0  0  0  0
    0.8250   -0.8250    0.0000 C   0  0  0  0  0  0  0  0  0  0  0  0
    0.4125   -1.5395    0.0000 C   0  0  0  0  0  0  0  0  0  0  0  0
   -0.4125   -1.5395    0.0000 C   0  0  0  0  0  0  0  0  0  0  0  0
   -0.8250   -0.8250    0.0000 C   0  0  0  0  0  0  0  0  0  0  0  0
   -0.4125   -0.1105    0.0000 C   0  0  0  0  0  0  0  0  0  0  0  0
    0.4125   -0.1105    0.0000 C   0  0  0  0  0  0  0  0  0  0  0  0
   -0.8250    0.6039    0.0000 C   0  0  1  0  0  0  0  0  0  0  0  0
   -1.6500    0.6039    0.0000 N   0  0  0  0  0  0  0  0  0  0  0  0
   -2.0625   -0.1105    0.0000 C   0  0  0  0  0  0  0  0  0  0  0  0
   -2.8875   -0.1105    0.0000 C   0  0  0  0  0  0  0  0  0  0  0  0
   -3.3000    0.6039    0.0000 C   0  0  0  0  0  0  0  0  0  0  0  0
   -4.1250    0.6039    0.0000 C   0  0  0  0  0  0  0  0  0  0  0  0
   -4.5375   -0.1105    0.0000 C   0  0  0  0  0  0  0  0  0  0  0  0
   -4.1250   -0.8250    0.0000 C   0  0  0  0  0  0  0  0  0  0  0  0
   -3.3000   -0.8250    0.0000 C   0  0  0  0  0  0  0  0  0  0  0  0
   -4.5375   -1.5395    0.0000 O   0  0  0  0  0  0  0  0  0  0  0  0
   -5.3625   -0.1105    0.0000 C   0  0  0  0  0  0  0  0  0  0  0  0
   -5.7750    0.6039    0.0000 C   0  0  0  0  0  0  0  0  0  0  0  0
   -5.3625    1.3184    0.0000 C   0  0  0  0  0  0  0  0  0  0  0  0
   -5.7750    2.0329    0.0000 Cl  0  0  0  0  0  0  0  0  0  0  0  0
   -4.5375    1.3184    0.0000 C   0  0  0  0  0  0  0  0  0  0  0  0
   -4.1250    2.0329    0.0000 F   0  0  0  0  0  0  0  0  0  0  0  0
   -2.8875    1.3184    0.0000 C   0  0  0  0  0  0  0  0  0  0  0  0
   -2.0625    1.3184    0.0000 C   0  0  0  0  0  0  0  0  0  0  0  0
   -1.6500    2.0329    0.0000 O   0  0  0  0  0  0  0  0  0  0  0  0
   -0.4125    1.3184    0.0000 C   0  0  0  0  0  0  0  0  0  0  0  0
    0.4125    1.3184    0.0000 C   0  0  0  0  0  0  0  0  0  0  0  0
    0.8250    2.0329    0.0000 C   0  0  0  0  0  0  0  0  0  0  0  0
    1.6500    2.0329    0.0000 C   0  0  1  0  0  0  0  0  0  0  0  0
    2.0625    2.7474    0.0000 C   0  0  0  0  0  0  0  0  0  0  0  0
    2.0625    1.3184    0.0000 C   0  0  0  0  0  0  0  0  0  0  0  0
    2.8875    1.3184    0.0000 O   0  0  0  0  0  0  0  0  0  0  0  0
    1.6500    0.6039    0.0000 N   0  0  0  0  0  0  0  0  0  0  0  0
  1  2  1  0  0  0  0
  2  3  1  0  0  0  0
  3  4  2  0  0  0  0
  3  5  1  0  0  0  0
  5  6  4  0  0  0  0
  6  7  4  0  0  0  0
  7  8  4  0  0  0  0
  8  9  4  0  0  0  0
  9 10  4  0  0  0  0
  5 10  4  0  0  0  0
  9 11  1  0  0  0  0
 11 12  4  0  0  0  0
 12 13  4  0  0  0  0
 13 14  4  0  0  0  0
 14 15  4  0  0  0  0
 15 16  4  0  0  0  0
 11 16  4  0  0  0  0
 15 17  1  0  0  0  0
 17 18  1  1  0  0  0
 18 19  1  0  0  0  0
 19 20  1  0  0  0  0
 20 21  1  0  0  0  0
 21 22  1  0  0  0  0
 22 23  4  0  0  0  0
 23 24  1  0  0  0  0
 24 25  1  0  0  0  0
 24 26  2  0  0  0  0
 23 27  4  0  0  0  0
 27 28  4  0  0  0  0
 28 29  4  0  0  0  0
 29 30  1  0  0  0  0
 29 31  4  0  0  0  0
 22 31  4  0  0  0  0
 31 32  1  0  0  0  0
 21 33  2  0  0  0  0
 33 34  1  0  0  0  0
 18 34  1  0  0  0  0
 34 35  2  0  0  0  0
 17 36  1  0  0  0  0
 36 37  1  0  0  0  0
 37 38  1  0  0  0  0
 38 39  1  0  0  0  0
 39 40  1  1  0  0  0
 39 41  1  0  0  0  0
 41 42  2  0  0  0  0
 41 43  1  0  0  0  0
  8 43  1  0  0  0  0
M  END
>  <CdId>
358483

>  <Mol Weight>
603.08

>  <Formula>
C34H32ClFN2O5

>  <cmpd_chemblid>
CHEMBL4113770

>  <std_type>
Ki

>  <std_value>
139.8

>  <std_unit>
nM

>  <target_id>
CHEMBL2016

>  <target_name>
Coagulation factor IX

>  <organism>
Homo sapiens

>  <target_type>
SINGLE PROTEIN

$$$$

  Mrv0541 08052111042D          

 36 39  0  0  1  0            999 V2000
   -7.0957   -4.5805    0.0000 C   0  0  0  0  0  0  0  0  0  0  0  0
   -6.7601   -3.8269    0.0000 N   0  0  0  0  0  0  0  0  0  0  0  0
   -7.2450   -3.1594    0.0000 C   0  0  0  0  0  0  0  0  0  0  0  0
   -5.9396   -3.7406    0.0000 C   0  0  0  0  0  0  0  0  0  0  0  0
   -5.6041   -2.9870    0.0000 C   0  0  0  0  0  0  0  0  0  0  0  0
   -4.7836   -2.9007    0.0000 C   0  0  0  0  0  0  0  0  0  0  0  0
   -4.2987   -3.5682    0.0000 C   0  0  0  0  0  0  0  0  0  0  0  0
   -3.4782   -3.4819    0.0000 S   0  0  0  0  0  0  0  0  0  0  0  0
   -3.3920   -4.3024    0.0000 O   0  0  0  0  0  0  0  0  0  0  0  0
   -3.5644   -2.6614    0.0000 O   0  0  0  0  0  0  0  0  0  0  0  0
   -2.6577   -3.3957    0.0000 N   0  0  0  0  0  0  0  0  0  0  0  0
   -2.3221   -2.6420    0.0000 C   0  0  1  0  0  0  0  0  0  0  0  0
   -2.7346   -1.9275    0.0000 C   0  0  0  0  0  0  0  0  0  0  0  0
   -2.1826   -1.3144    0.0000 C   0  0  0  0  0  0  0  0  0  0  0  0
   -1.4289   -1.6500    0.0000 N   0  0  0  0  0  0  0  0  0  0  0  0
   -0.7145   -1.2375    0.0000 C   0  0  2  0  0  0  0  0  0  0  0  0
    0.0000   -1.6500    0.0000 C   0  0  0  0  0  0  0  0  0  0  0  0
    0.7145   -1.2375    0.0000 C   0  0  0  0  0  0  0  0  0  0  0  0
    0.7145   -0.4125    0.0000 C   0  0  0  0  0  0  0  0  0  0  0  0
    1.4289    0.0000    0.0000 C   0  0  0  0  0  0  0  0  0  0  0  0
    2.1434   -0.4125    0.0000 C   0  0  0  0  0  0  0  0  0  0  0  0
    2.8579    0.0000    0.0000 C   0  0  0  0  0  0  0  0  0  0  0  0
    2.8579    0.8250    0.0000 N   0  0  0  0  0  0  0  0  0  0  0  0
    3.5724   -0.4125    0.0000 N   0  0  0  0  0  0  0  0  0  0  0  0
    3.5724   -1.2375    0.0000 C   0  0  0  0  0  0  0  0  0  0  0  0
    2.8579   -1.6500    0.0000 C   0  0  0  0  0  0  0  0  0  0  0  0
    2.1434   -1.2375    0.0000 C   0  0  0  0  0  0  0  0  0  0  0  0
    1.4289   -1.6500    0.0000 C   0  0  0  0  0  0  0  0  0  0  0  0
    1.4289   -2.4750    0.0000 F   0  0  0  0  0  0  0  0  0  0  0  0
   -0.7145   -0.4125    0.0000 C   0  0  0  0  0  0  0  0  0  0  0  0
   -1.4289   -0.0000    0.0000 O   0  0  0  0  0  0  0  0  0  0  0  0
    0.0000   -0.0000    0.0000 O   0  0  0  0  0  0  0  0  0  0  0  0
   -1.5152   -2.4705    0.0000 C   0  0  0  0  0  0  0  0  0  0  0  0
   -0.9021   -3.0225    0.0000 O   0  0  0  0  0  0  0  0  0  0  0  0
   -4.6342   -4.3218    0.0000 C   0  0  0  0  0  0  0  0  0  0  0  0
   -5.4547   -4.4081    0.0000 N   0  0  0  0  0  0  0  0  0  0  0  0
  1  2  1  0  0  0  0
  2  3  1  0  0  0  0
  2  4  1  0  0  0  0
  4  5  4  0  0  0  0
  5  6  4  0  0  0  0
  6  7  4  0  0  0  0
  7  8  1  0  0  0  0
  8  9  2  0  0  0  0
  8 10  2  0  0  0  0
  8 11  1  0  0  0  0
 12 11  1  1  0  0  0
 12 13  1  0  0  0  0
 13 14  1  0  0  0  0
 14 15  1  0  0  0  0
 16 15  1  1  0  0  0
 16 17  1  0  0  0  0
 17 18  1  0  0  0  0
 18 19  4  0  0  0  0
 19 20  4  0  0  0  0
 20 21  4  0  0  0  0
 21 22  4  0  0  0  0
 22 23  1  0  0  0  0
 22 24  4  0  0  0  0
 24 25  4  0  0  0  0
 25 26  4  0  0  0  0
 26 27  4  0  0  0  0
 21 27  4  0  0  0  0
 27 28  4  0  0  0  0
 18 28  4  0  0  0  0
 28 29  1  0  0  0  0
 16 30  1  0  0  0  0
 30 31  2  0  0  0  0
 30 32  1  0  0  0  0
 15 33  1  0  0  0  0
 12 33  1  0  0  0  0
 33 34  2  0  0  0  0
  7 35  4  0  0  0  0
 35 36  4  0  0  0  0
  4 36  4  0  0  0  0
M  END
>  <CdId>
358484

>  <Mol Weight>
516.545

>  <Formula>
C23H25FN6O5S

>  <cmpd_chemblid>
CHEMBL3968814

>  <std_type>
Ki

>  <std_value>
85.0

>  <std_unit>
nM

>  <target_id>
CHEMBL2016

>  <target_name>
Coagulation factor IX

>  <organism>
Homo sapiens

>  <target_type>
SINGLE PROTEIN

$$$$

  Mrv0541 08052111042D          

 45 49  0  0  1  0            999 V2000
    8.6329   -2.2539    0.0000 C   0  0  0  0  0  0  0  0  0  0  0  0
    8.2204   -1.5395    0.0000 O   0  0  0  0  0  0  0  0  0  0  0  0
    7.3954   -1.5395    0.0000 C   0  0  0  0  0  0  0  0  0  0  0  0
    6.9829   -2.2539    0.0000 O   0  0  0  0  0  0  0  0  0  0  0  0
    6.9829   -0.8250    0.0000 N   0  0  0  0  0  0  0  0  0  0  0  0
    6.1579   -0.8250    0.0000 C   0  0  0  0  0  0  0  0  0  0  0  0
    5.7454   -0.1105    0.0000 C   0  0  0  0  0  0  0  0  0  0  0  0
    4.9204   -0.1105    0.0000 C   0  0  0  0  0  0  0  0  0  0  0  0
    4.5079   -0.8250    0.0000 C   0  0  0  0  0  0  0  0  0  0  0  0
    4.9204   -1.5395    0.0000 C   0  0  0  0  0  0  0  0  0  0  0  0
    5.7454   -1.5395    0.0000 C   0  0  0  0  0  0  0  0  0  0  0  0
    4.5079   -2.2539    0.0000 N   0  0  0  0  0  0  0  0  0  0  0  0
    4.9204   -2.9684    0.0000 C   0  0  0  0  0  0  0  0  0  0  0  0
    5.7454   -2.9684    0.0000 O   0  0  0  0  0  0  0  0  0  0  0  0
    4.5079   -3.6829    0.0000 C   0  0  2  0  0  0  0  0  0  0  0  0
    4.9204   -4.3974    0.0000 C   0  0  0  0  0  0  0  0  0  0  0  0
    3.6829   -3.6829    0.0000 C   0  0  0  0  0  0  0  0  0  0  0  0
    3.2704   -2.9684    0.0000 C   0  0  0  0  0  0  0  0  0  0  0  0
    2.4454   -2.9684    0.0000 C   0  0  0  0  0  0  0  0  0  0  0  0
    2.0329   -2.2539    0.0000 C   0  0  2  0  0  0  0  0  0  0  0  0
    1.2079   -2.2539    0.0000 N   0  0  0  0  0  0  0  0  0  0  0  0
    0.7954   -2.9684    0.0000 C   0  0  0  0  0  0  0  0  0  0  0  0
   -0.0296   -2.9684    0.0000 C   0  0  0  0  0  0  0  0  0  0  0  0
   -0.4421   -2.2539    0.0000 C   0  0  0  0  0  0  0  0  0  0  0  0
   -1.2671   -2.2539    0.0000 C   0  0  0  0  0  0  0  0  0  0  0  0
   -1.6796   -2.9684    0.0000 C   0  0  0  0  0  0  0  0  0  0  0  0
   -1.2671   -3.6829    0.0000 O   0  0  0  0  0  0  0  0  0  0  0  0
   -1.6796   -4.3974    0.0000 C   0  0  0  0  0  0  0  0  0  0  0  0
   -2.5046   -4.3974    0.0000 F   0  0  0  0  0  0  0  0  0  0  0  0
   -1.2671   -5.1118    0.0000 F   0  0  0  0  0  0  0  0  0  0  0  0
   -2.5046   -2.9684    0.0000 C   0  0  0  0  0  0  0  0  0  0  0  0
   -2.9171   -2.2539    0.0000 C   0  0  0  0  0  0  0  0  0  0  0  0
   -2.5046   -1.5395    0.0000 C   0  0  0  0  0  0  0  0  0  0  0  0
   -2.9171   -0.8250    0.0000 Cl  0  0  0  0  0  0  0  0  0  0  0  0
   -1.6796   -1.5395    0.0000 C   0  0  0  0  0  0  0  0  0  0  0  0
   -1.2671   -0.8250    0.0000 F   0  0  0  0  0  0  0  0  0  0  0  0
   -0.0296   -1.5395    0.0000 C   0  0  0  0  0  0  0  0  0  0  0  0
    0.7954   -1.5395    0.0000 C   0  0  0  0  0  0  0  0  0  0  0  0
    1.2079   -0.8250    0.0000 O   0  0  0  0  0  0  0  0  0  0  0  0
    2.4454   -1.5395    0.0000 C   0  0  0  0  0  0  0  0  0  0  0  0
    3.2704   -1.5395    0.0000 C   0  0  0  0  0  0  0  0  0  0  0  0
    3.6829   -0.8250    0.0000 C   0  0  0  0  0  0  0  0  0  0  0  0
    3.2704   -0.1105    0.0000 C   0  0  0  0  0  0  0  0  0  0  0  0
    2.4454   -0.1105    0.0000 C   0  0  0  0  0  0  0  0  0  0  0  0
    2.0329   -0.8250    0.0000 N   0  0  0  0  0  0  0  0  0  0  0  0
  1  2  1  0  0  0  0
  2  3  1  0  0  0  0
  3  4  2  0  0  0  0
  3  5  1  0  0  0  0
  5  6  1  0  0  0  0
  6  7  4  0  0  0  0
  7  8  4  0  0  0  0
  8  9  4  0  0  0  0
  9 10  4  0  0  0  0
 10 11  4  0  0  0  0
  6 11  4  0  0  0  0
 10 12  1  0  0  0  0
 12 13  1  0  0  0  0
 13 14  2  0  0  0  0
 13 15  1  0  0  0  0
 15 16  1  6  0  0  0
 15 17  1  0  0  0  0
 17 18  1  0  0  0  0
 18 19  1  0  0  0  0
 19 20  1  0  0  0  0
 20 21  1  6  0  0  0
 21 22  1  0  0  0  0
 22 23  1  0  0  0  0
 23 24  1  0  0  0  0
 24 25  1  0  0  0  0
 25 26  4  0  0  0  0
 26 27  1  0  0  0  0
 27 28  1  0  0  0  0
 28 29  1  0  0  0  0
 28 30  1  0  0  0  0
 26 31  4  0  0  0  0
 31 32  4  0  0  0  0
 32 33  4  0  0  0  0
 33 34  1  0  0  0  0
 33 35  4  0  0  0  0
 25 35  4  0  0  0  0
 35 36  1  0  0  0  0
 24 37  2  0  0  0  0
 37 38  1  0  0  0  0
 21 38  1  0  0  0  0
 38 39  2  0  0  0  0
 20 40  1  0  0  0  0
 40 41  4  0  0  0  0
 41 42  4  0  0  0  0
  9 42  1  0  0  0  0
 42 43  4  0  0  0  0
 43 44  4  0  0  0  0
 44 45  4  0  0  0  0
 40 45  4  0  0  0  0
M  END
>  <CdId>
358485

>  <Mol Weight>
643.053

>  <Formula>
C32H30ClF3N4O5

>  <cmpd_chemblid>
CHEMBL4113483

>  <std_type>
Ki

>  <std_value>
0.06

>  <std_unit>
nM

>  <target_id>
CHEMBL2016

>  <target_name>
Coagulation factor IX

>  <organism>
Homo sapiens

>  <target_type>
SINGLE PROTEIN

$$$$

  Mrv0541 08052111042D          

 41 45  0  0  1  0            999 V2000
    5.8021   -1.2839    0.0000 C   0  0  0  0  0  0  0  0  0  0  0  0
    5.0751   -1.6739    0.0000 O   0  0  0  0  0  0  0  0  0  0  0  0
    4.3738   -1.2393    0.0000 C   0  0  0  0  0  0  0  0  0  0  0  0
    4.3996   -0.4147    0.0000 O   0  0  0  0  0  0  0  0  0  0  0  0
    3.6468   -1.6293    0.0000 N   0  0  0  0  0  0  0  0  0  0  0  0
    2.9456   -1.1947    0.0000 C   0  0  0  0  0  0  0  0  0  0  0  0
    2.8850   -0.3719    0.0000 C   0  0  0  0  0  0  0  0  0  0  0  0
    2.0838   -0.1753    0.0000 C   0  0  0  0  0  0  0  0  0  0  0  0
    1.6492   -0.8765    0.0000 N   0  0  0  0  0  0  0  0  0  0  0  0
    2.1818   -1.5066    0.0000 N   0  0  0  0  0  0  0  0  0  0  0  0
    0.8246   -0.8508    0.0000 C   0  0  0  0  0  0  0  0  0  0  0  0
    0.3900   -1.5520    0.0000 C   0  0  0  0  0  0  0  0  0  0  0  0
   -0.4346   -1.5262    0.0000 C   0  0  0  0  0  0  0  0  0  0  0  0
   -0.8246   -0.7992    0.0000 N   0  0  0  0  0  0  0  0  0  0  0  0
   -0.3900   -0.0980    0.0000 C   0  0  0  0  0  0  0  0  0  0  0  0
    0.4346   -0.1238    0.0000 C   0  0  0  0  0  0  0  0  0  0  0  0
   -0.7800    0.6290    0.0000 C   0  0  1  0  0  0  0  0  0  0  0  0
   -1.6046    0.6548    0.0000 N   0  0  0  0  0  0  0  0  0  0  0  0
   -2.0392   -0.0465    0.0000 C   0  0  0  0  0  0  0  0  0  0  0  0
   -2.8638   -0.0207    0.0000 C   0  0  0  0  0  0  0  0  0  0  0  0
   -3.2538    0.7063    0.0000 C   0  0  0  0  0  0  0  0  0  0  0  0
   -4.0784    0.7321    0.0000 C   0  0  0  0  0  0  0  0  0  0  0  0
   -4.5130    0.0308    0.0000 C   0  0  0  0  0  0  0  0  0  0  0  0
   -4.1230   -0.6962    0.0000 F   0  0  0  0  0  0  0  0  0  0  0  0
   -5.3376    0.0566    0.0000 C   0  0  0  0  0  0  0  0  0  0  0  0
   -5.7276    0.7836    0.0000 C   0  0  0  0  0  0  0  0  0  0  0  0
   -5.2930    1.4848    0.0000 C   0  0  0  0  0  0  0  0  0  0  0  0
   -5.6829    2.2118    0.0000 Cl  0  0  0  0  0  0  0  0  0  0  0  0
   -4.4684    1.4591    0.0000 C   0  0  0  0  0  0  0  0  0  0  0  0
   -4.0337    2.1603    0.0000 F   0  0  0  0  0  0  0  0  0  0  0  0
   -2.8192    1.4075    0.0000 C   0  0  0  0  0  0  0  0  0  0  0  0
   -1.9946    1.3818    0.0000 C   0  0  0  0  0  0  0  0  0  0  0  0
   -1.5600    2.0830    0.0000 O   0  0  0  0  0  0  0  0  0  0  0  0
   -0.3454    1.3302    0.0000 C   0  0  0  0  0  0  0  0  0  0  0  0
    0.4792    1.3045    0.0000 C   0  0  0  0  0  0  0  0  0  0  0  0
    0.9138    2.0057    0.0000 C   0  0  0  0  0  0  0  0  0  0  0  0
    1.7384    1.9800    0.0000 C   0  0  1  0  0  0  0  0  0  0  0  0
    2.1731    2.6812    0.0000 C   0  0  0  0  0  0  0  0  0  0  0  0
    2.1284    1.2530    0.0000 C   0  0  0  0  0  0  0  0  0  0  0  0
    2.9530    1.2272    0.0000 O   0  0  0  0  0  0  0  0  0  0  0  0
    1.6938    0.5517    0.0000 N   0  0  0  0  0  0  0  0  0  0  0  0
  1  2  1  0  0  0  0
  2  3  1  0  0  0  0
  3  4  2  0  0  0  0
  3  5  1  0  0  0  0
  5  6  1  0  0  0  0
  6  7  4  0  0  0  0
  7  8  4  0  0  0  0
  8  9  4  0  0  0  0
  9 10  4  0  0  0  0
  6 10  4  0  0  0  0
  9 11  1  0  0  0  0
 11 12  4  0  0  0  0
 12 13  4  0  0  0  0
 13 14  4  0  0  0  0
 14 15  4  0  0  0  0
 15 16  4  0  0  0  0
 11 16  4  0  0  0  0
 15 17  1  0  0  0  0
 17 18  1  1  0  0  0
 18 19  1  0  0  0  0
 19 20  1  0  0  0  0
 20 21  1  0  0  0  0
 21 22  1  0  0  0  0
 22 23  4  0  0  0  0
 23 24  1  0  0  0  0
 23 25  4  0  0  0  0
 25 26  4  0  0  0  0
 26 27  4  0  0  0  0
 27 28  1  0  0  0  0
 27 29  4  0  0  0  0
 22 29  4  0  0  0  0
 29 30  1  0  0  0  0
 21 31  2  0  0  0  0
 31 32  1  0  0  0  0
 18 32  1  0  0  0  0
 32 33  2  0  0  0  0
 17 34  1  0  0  0  0
 34 35  1  0  0  0  0
 35 36  1  0  0  0  0
 36 37  1  0  0  0  0
 37 38  1  1  0  0  0
 37 39  1  0  0  0  0
 39 40  2  0  0  0  0
 39 41  1  0  0  0  0
  8 41  1  0  0  0  0
M  END
>  <CdId>
358486

>  <Mol Weight>
585.002

>  <Formula>
C28H27ClF2N6O4

>  <cmpd_chemblid>
CHEMBL4115341

>  <std_type>
Ki

>  <std_value>
297.7

>  <std_unit>
nM

>  <target_id>
CHEMBL2016

>  <target_name>
Coagulation factor IX

>  <organism>
Homo sapiens

>  <target_type>
SINGLE PROTEIN

$$$$

  Mrv0541 08052111042D          

 39 43  0  0  1  0            999 V2000
    3.9849    3.9849    0.0000 C   0  0  0  0  0  0  0  0  0  0  0  0
    4.3974    3.2704    0.0000 C   0  0  2  0  0  0  0  0  0  0  0  0
    5.2224    3.2704    0.0000 C   0  0  0  0  0  0  0  0  0  0  0  0
    5.6349    2.5559    0.0000 C   0  0  0  0  0  0  0  0  0  0  0  0
    6.4599    2.5559    0.0000 C   0  0  0  0  0  0  0  0  0  0  0  0
    6.8724    1.8414    0.0000 C   0  0  2  0  0  0  0  0  0  0  0  0
    7.6974    1.8414    0.0000 N   0  0  0  0  0  0  0  0  0  0  0  0
    8.1099    2.5559    0.0000 C   0  0  0  0  0  0  0  0  0  0  0  0
    8.9349    2.5559    0.0000 C   0  0  0  0  0  0  0  0  0  0  0  0
    9.3474    1.8414    0.0000 C   0  0  0  0  0  0  0  0  0  0  0  0
   10.1724    1.8414    0.0000 C   0  0  0  0  0  0  0  0  0  0  0  0
   10.5849    2.5559    0.0000 C   0  0  0  0  0  0  0  0  0  0  0  0
   10.1724    3.2704    0.0000 Br  0  0  0  0  0  0  0  0  0  0  0  0
   11.4099    2.5559    0.0000 C   0  0  0  0  0  0  0  0  0  0  0  0
   11.8224    1.8414    0.0000 C   0  0  0  0  0  0  0  0  0  0  0  0
   11.4099    1.1270    0.0000 C   0  0  0  0  0  0  0  0  0  0  0  0
   11.8224    0.4125    0.0000 Cl  0  0  0  0  0  0  0  0  0  0  0  0
   10.5849    1.1270    0.0000 C   0  0  0  0  0  0  0  0  0  0  0  0
   10.1724    0.4125    0.0000 F   0  0  0  0  0  0  0  0  0  0  0  0
    8.9349    1.1270    0.0000 C   0  0  0  0  0  0  0  0  0  0  0  0
    8.1099    1.1270    0.0000 C   0  0  0  0  0  0  0  0  0  0  0  0
    7.6974    0.4125    0.0000 O   0  0  0  0  0  0  0  0  0  0  0  0
    6.4599    1.1270    0.0000 C   0  0  0  0  0  0  0  0  0  0  0  0
    5.6349    1.1270    0.0000 C   0  0  0  0  0  0  0  0  0  0  0  0
    5.2224    0.4125    0.0000 C   0  0  0  0  0  0  0  0  0  0  0  0
    5.6349   -0.3020    0.0000 C   0  0  0  0  0  0  0  0  0  0  0  0
    6.4599   -0.3020    0.0000 C   0  0  0  0  0  0  0  0  0  0  0  0
    6.8724    0.4125    0.0000 N   0  0  0  0  0  0  0  0  0  0  0  0
    4.3974    0.4125    0.0000 C   0  0  0  0  0  0  0  0  0  0  0  0
    3.9849    1.1270    0.0000 C   0  0  0  0  0  0  0  0  0  0  0  0
    3.1599    1.1270    0.0000 C   0  0  0  0  0  0  0  0  0  0  0  0
    2.7474    0.4125    0.0000 C   0  0  0  0  0  0  0  0  0  0  0  0
    3.1599   -0.3020    0.0000 C   0  0  0  0  0  0  0  0  0  0  0  0
    2.7474   -1.0164    0.0000 F   0  0  0  0  0  0  0  0  0  0  0  0
    3.9849   -0.3020    0.0000 C   0  0  0  0  0  0  0  0  0  0  0  0
    4.3974   -1.0164    0.0000 F   0  0  0  0  0  0  0  0  0  0  0  0
    4.3974    1.8414    0.0000 N   0  0  0  0  0  0  0  0  0  0  0  0
    3.9849    2.5559    0.0000 C   0  0  0  0  0  0  0  0  0  0  0  0
    3.1599    2.5559    0.0000 O   0  0  0  0  0  0  0  0  0  0  0  0
  2  1  1  6  0  0  0
  2  3  1  0  0  0  0
  3  4  1  0  0  0  0
  4  5  1  0  0  0  0
  5  6  1  0  0  0  0
  6  7  1  6  0  0  0
  7  8  1  0  0  0  0
  8  9  1  0  0  0  0
  9 10  1  0  0  0  0
 10 11  1  0  0  0  0
 11 12  4  0  0  0  0
 12 13  1  0  0  0  0
 12 14  4  0  0  0  0
 14 15  4  0  0  0  0
 15 16  4  0  0  0  0
 16 17  1  0  0  0  0
 16 18  4  0  0  0  0
 11 18  4  0  0  0  0
 18 19  1  0  0  0  0
 10 20  2  0  0  0  0
 20 21  1  0  0  0  0
  7 21  1  0  0  0  0
 21 22  2  0  0  0  0
  6 23  1  0  0  0  0
 23 24  4  0  0  0  0
 24 25  4  0  0  0  0
 25 26  4  0  0  0  0
 26 27  4  0  0  0  0
 27 28  4  0  0  0  0
 23 28  4  0  0  0  0
 25 29  1  0  0  0  0
 29 30  4  0  0  0  0
 30 31  4  0  0  0  0
 31 32  4  0  0  0  0
 32 33  4  0  0  0  0
 33 34  1  0  0  0  0
 33 35  4  0  0  0  0
 29 35  4  0  0  0  0
 35 36  1  0  0  0  0
 30 37  1  0  0  0  0
 37 38  1  0  0  0  0
  2 38  1  0  0  0  0
 38 39  2  0  0  0  0
M  END
>  <CdId>
358487

>  <Mol Weight>
618.872

>  <Formula>
C29H24BrClF3N3O2

>  <cmpd_chemblid>
CHEMBL4107383

>  <std_type>
Ki

>  <std_value>
4.46

>  <std_unit>
nM

>  <target_id>
CHEMBL2016

>  <target_name>
Coagulation factor IX

>  <organism>
Homo sapiens

>  <target_type>
SINGLE PROTEIN

$$$$

  Mrv0541 08052111042D          

 46 52  0  0  1  0            999 V2000
    3.9849    3.9849    0.0000 C   0  0  0  0  0  0  0  0  0  0  0  0
    4.3974    3.2704    0.0000 C   0  0  2  0  0  0  0  0  0  0  0  0
    5.2224    3.2704    0.0000 C   0  0  0  0  0  0  0  0  0  0  0  0
    5.6349    2.5559    0.0000 C   0  0  0  0  0  0  0  0  0  0  0  0
    6.4599    2.5559    0.0000 C   0  0  0  0  0  0  0  0  0  0  0  0
    6.8724    1.8414    0.0000 C   0  0  2  0  0  0  0  0  0  0  0  0
    7.6974    1.8414    0.0000 N   0  0  0  0  0  0  0  0  0  0  0  0
    8.1099    2.5559    0.0000 C   0  0  0  0  0  0  0  0  0  0  0  0
    8.9349    2.5559    0.0000 C   0  0  0  0  0  0  0  0  0  0  0  0
    9.3474    1.8414    0.0000 C   0  0  0  0  0  0  0  0  0  0  0  0
   10.1724    1.8414    0.0000 C   0  0  0  0  0  0  0  0  0  0  0  0
   10.5849    2.5559    0.0000 C   0  0  0  0  0  0  0  0  0  0  0  0
   10.1724    3.2704    0.0000 F   0  0  0  0  0  0  0  0  0  0  0  0
   11.4099    2.5559    0.0000 C   0  0  0  0  0  0  0  0  0  0  0  0
   11.8224    1.8414    0.0000 C   0  0  0  0  0  0  0  0  0  0  0  0
   11.4099    1.1270    0.0000 C   0  0  0  0  0  0  0  0  0  0  0  0
   11.8224    0.4125    0.0000 Cl  0  0  0  0  0  0  0  0  0  0  0  0
   10.5849    1.1270    0.0000 C   0  0  0  0  0  0  0  0  0  0  0  0
   10.1724    0.4125    0.0000 F   0  0  0  0  0  0  0  0  0  0  0  0
    8.9349    1.1270    0.0000 C   0  0  0  0  0  0  0  0  0  0  0  0
    8.1099    1.1270    0.0000 C   0  0  0  0  0  0  0  0  0  0  0  0
    7.6974    0.4125    0.0000 O   0  0  0  0  0  0  0  0  0  0  0  0
    6.4599    1.1270    0.0000 C   0  0  0  0  0  0  0  0  0  0  0  0
    5.6349    1.1270    0.0000 C   0  0  0  0  0  0  0  0  0  0  0  0
    5.2224    0.4125    0.0000 C   0  0  0  0  0  0  0  0  0  0  0  0
    5.6349   -0.3020    0.0000 C   0  0  0  0  0  0  0  0  0  0  0  0
    6.4599   -0.3020    0.0000 C   0  0  0  0  0  0  0  0  0  0  0  0
    6.8724    0.4125    0.0000 N   0  0  0  0  0  0  0  0  0  0  0  0
    4.3974    0.4125    0.0000 C   0  0  0  0  0  0  0  0  0  0  0  0
    3.9849   -0.3020    0.0000 C   0  0  0  0  0  0  0  0  0  0  0  0
    3.1599   -0.3020    0.0000 C   0  0  0  0  0  0  0  0  0  0  0  0
    2.7474    0.4125    0.0000 C   0  0  0  0  0  0  0  0  0  0  0  0
    1.9224    0.4125    0.0000 N   0  0  0  0  0  0  0  0  0  0  0  0
    1.5099   -0.3020    0.0000 C   0  0  0  0  0  0  0  0  0  0  0  0
    1.8454   -1.0556    0.0000 N   0  0  0  0  0  0  0  0  0  0  0  0
    1.2323   -1.6077    0.0000 N   0  0  0  0  0  0  0  0  0  0  0  0
    0.5178   -1.1952    0.0000 C   0  0  0  0  0  0  0  0  0  0  0  0
   -0.2358   -1.5307    0.0000 C   0  0  0  0  0  0  0  0  0  0  0  0
   -0.7208   -2.1982    0.0000 C   0  0  0  0  0  0  0  0  0  0  0  0
   -1.0563   -1.4445    0.0000 C   0  0  0  0  0  0  0  0  0  0  0  0
    0.6894   -0.3882    0.0000 O   0  0  0  0  0  0  0  0  0  0  0  0
    3.1599    1.1270    0.0000 C   0  0  0  0  0  0  0  0  0  0  0  0
    3.9849    1.1270    0.0000 C   0  0  0  0  0  0  0  0  0  0  0  0
    4.3974    1.8414    0.0000 N   0  0  0  0  0  0  0  0  0  0  0  0
    3.9849    2.5559    0.0000 C   0  0  0  0  0  0  0  0  0  0  0  0
    3.1599    2.5559    0.0000 O   0  0  0  0  0  0  0  0  0  0  0  0
  2  1  1  6  0  0  0
  2  3  1  0  0  0  0
  3  4  1  0  0  0  0
  4  5  1  0  0  0  0
  5  6  1  0  0  0  0
  6  7  1  6  0  0  0
  7  8  1  0  0  0  0
  8  9  1  0  0  0  0
  9 10  1  0  0  0  0
 10 11  1  0  0  0  0
 11 12  4  0  0  0  0
 12 13  1  0  0  0  0
 12 14  4  0  0  0  0
 14 15  4  0  0  0  0
 15 16  4  0  0  0  0
 16 17  1  0  0  0  0
 16 18  4  0  0  0  0
 11 18  4  0  0  0  0
 18 19  1  0  0  0  0
 10 20  2  0  0  0  0
 20 21  1  0  0  0  0
  7 21  1  0  0  0  0
 21 22  2  0  0  0  0
  6 23  1  0  0  0  0
 23 24  4  0  0  0  0
 24 25  4  0  0  0  0
 25 26  4  0  0  0  0
 26 27  4  0  0  0  0
 27 28  4  0  0  0  0
 23 28  4  0  0  0  0
 25 29  1  0  0  0  0
 29 30  4  0  0  0  0
 30 31  4  0  0  0  0
 31 32  4  0  0  0  0
 32 33  1  0  0  0  0
 33 34  1  0  0  0  0
 34 35  4  0  0  0  0
 35 36  4  0  0  0  0
 36 37  4  0  0  0  0
 37 38  1  0  0  0  0
 38 39  1  0  0  0  0
 39 40  1  0  0  0  0
 38 40  1  0  0  0  0
 37 41  4  0  0  0  0
 34 41  4  0  0  0  0
 32 42  4  0  0  0  0
 42 43  4  0  0  0  0
 29 43  4  0  0  0  0
 43 44  1  0  0  0  0
 44 45  1  0  0  0  0
  2 45  1  0  0  0  0
 45 46  2  0  0  0  0
M  END
>  <CdId>
358488

>  <Mol Weight>
645.098

>  <Formula>
C34H31ClF2N6O3

>  <cmpd_chemblid>
CHEMBL4114332

>  <std_type>
Ki

>  <std_value>
0.67

>  <std_unit>
nM

>  <target_id>
CHEMBL2016

>  <target_name>
Coagulation factor IX

>  <organism>
Homo sapiens

>  <target_type>
SINGLE PROTEIN

$$$$

  Mrv0541 08052111042D          

 33 37  0  0  1  0            999 V2000
   -4.2122   -4.3298    0.0000 C   0  0  0  0  0  0  0  0  0  0  0  0
   -3.6188   -3.7568    0.0000 C   0  0  0  0  0  0  0  0  0  0  0  0
   -3.7336   -2.9398    0.0000 N   0  0  0  0  0  0  0  0  0  0  0  0
   -2.9921   -2.5781    0.0000 C   0  0  0  0  0  0  0  0  0  0  0  0
   -2.4190   -3.1716    0.0000 N   0  0  0  0  0  0  0  0  0  0  0  0
   -1.6020   -3.0568    0.0000 C   0  0  0  0  0  0  0  0  0  0  0  0
   -1.2930   -2.2918    0.0000 C   0  0  0  0  0  0  0  0  0  0  0  0
   -0.4760   -2.1770    0.0000 C   0  0  0  0  0  0  0  0  0  0  0  0
   -0.1669   -1.4121    0.0000 Cl  0  0  0  0  0  0  0  0  0  0  0  0
    0.0319   -2.8271    0.0000 C   0  0  0  0  0  0  0  0  0  0  0  0
    0.8489   -2.7123    0.0000 C   0  0  0  0  0  0  0  0  0  0  0  0
    1.3568   -3.3624    0.0000 O   0  0  0  0  0  0  0  0  0  0  0  0
    1.1580   -1.9474    0.0000 N   0  0  0  0  0  0  0  0  0  0  0  0
    1.9749   -1.8326    0.0000 C   0  0  2  0  0  0  0  0  0  0  0  0
    1.9461   -2.6571    0.0000 C   0  0  0  0  0  0  0  0  0  0  0  0
    1.7200   -1.0479    0.0000 C   0  0  0  0  0  0  0  0  0  0  0  0
    2.2720   -0.4349    0.0000 C   0  0  0  0  0  0  0  0  0  0  0  0
    3.0790   -0.6064    0.0000 C   0  0  0  0  0  0  0  0  0  0  0  0
    3.7464   -0.1215    0.0000 N   0  0  0  0  0  0  0  0  0  0  0  0
    4.4139   -0.6064    0.0000 N   0  0  0  0  0  0  0  0  0  0  0  0
    5.2208   -0.4349    0.0000 C   0  0  0  0  0  0  0  0  0  0  0  0
    5.4758    0.3498    0.0000 C   0  0  0  0  0  0  0  0  0  0  0  0
    5.7729   -1.0479    0.0000 C   0  0  0  0  0  0  0  0  0  0  0  0
    5.5179   -1.8326    0.0000 C   0  0  0  0  0  0  0  0  0  0  0  0
    4.7110   -2.0041    0.0000 C   0  0  0  0  0  0  0  0  0  0  0  0
    4.4560   -2.7887    0.0000 O   0  0  0  0  0  0  0  0  0  0  0  0
    4.1589   -1.3910    0.0000 C   0  0  0  0  0  0  0  0  0  0  0  0
    3.3339   -1.3910    0.0000 C   0  0  0  0  0  0  0  0  0  0  0  0
    2.7819   -2.0041    0.0000 C   0  0  0  0  0  0  0  0  0  0  0  0
   -0.2771   -3.5921    0.0000 C   0  0  0  0  0  0  0  0  0  0  0  0
    0.2308   -4.2422    0.0000 Cl  0  0  0  0  0  0  0  0  0  0  0  0
   -1.0941   -3.7069    0.0000 C   0  0  0  0  0  0  0  0  0  0  0  0
   -2.8063   -3.9000    0.0000 N   0  0  0  0  0  0  0  0  0  0  0  0
  1  2  1  0  0  0  0
  2  3  4  0  0  0  0
  3  4  4  0  0  0  0
  4  5  4  0  0  0  0
  5  6  1  0  0  0  0
  6  7  4  0  0  0  0
  7  8  4  0  0  0  0
  8  9  1  0  0  0  0
  8 10  4  0  0  0  0
 10 11  1  0  0  0  0
 11 12  2  0  0  0  0
 11 13  1  0  0  0  0
 14 13  1  6  0  0  0
 14 15  1  1  0  0  0
 14 16  1  0  0  0  0
 16 17  1  0  0  0  0
 17 18  1  0  0  0  0
 18 19  4  0  0  0  0
 19 20  4  0  0  0  0
 20 21  4  0  0  0  0
 21 22  1  0  0  0  0
 21 23  4  0  0  0  0
 23 24  4  0  0  0  0
 24 25  4  0  0  0  0
 25 26  1  0  0  0  0
 25 27  4  0  0  0  0
 20 27  4  0  0  0  0
 27 28  4  0  0  0  0
 18 28  4  0  0  0  0
 28 29  1  0  0  0  0
 14 29  1  0  0  0  0
 10 30  4  0  0  0  0
 30 31  1  0  0  0  0
 30 32  4  0  0  0  0
  6 32  4  0  0  0  0
  5 33  4  0  0  0  0
  2 33  4  0  0  0  0
M  END
>  <CdId>
358489

>  <Mol Weight>
485.366

>  <Formula>
C23H22Cl2N6O2

>  <cmpd_chemblid>
CHEMBL3628829

>  <std_type>
Ki

>  <std_value>
12.1

>  <std_unit>
nM

>  <target_id>
CHEMBL2016

>  <target_name>
Coagulation factor IX

>  <organism>
Homo sapiens

>  <target_type>
SINGLE PROTEIN

$$$$

  Mrv0541 08052111042D          

 32 34  0  0  1  0            999 V2000
    5.0013    0.4125    0.0000 C   0  0  0  0  0  0  0  0  0  0  0  0
    5.0013   -0.4125    0.0000 C   0  0  0  0  0  0  0  0  0  0  0  0
    4.1763   -0.4125    0.0000 C   0  0  0  0  0  0  0  0  0  0  0  0
    5.8263   -0.4125    0.0000 C   0  0  0  0  0  0  0  0  0  0  0  0
    5.0013   -1.2375    0.0000 C   0  0  0  0  0  0  0  0  0  0  0  0
    5.7158   -1.6500    0.0000 C   0  0  0  0  0  0  0  0  0  0  0  0
    5.7158   -2.4750    0.0000 C   0  0  0  0  0  0  0  0  0  0  0  0
    5.0013   -2.8875    0.0000 C   0  0  0  0  0  0  0  0  0  0  0  0
    5.0013   -3.7125    0.0000 N   0  0  0  0  0  0  0  0  0  0  0  0
    5.7158   -4.1250    0.0000 C   0  0  0  0  0  0  0  0  0  0  0  0
    5.7158   -4.9500    0.0000 C   0  0  0  0  0  0  0  0  0  0  0  0
    5.0013   -5.3625    0.0000 O   0  0  0  0  0  0  0  0  0  0  0  0
    4.2868   -4.9500    0.0000 C   0  0  2  0  0  0  0  0  0  0  0  0
    3.5724   -5.3625    0.0000 C   0  0  1  0  0  0  0  0  0  0  0  0
    3.5724   -6.1875    0.0000 O   0  0  0  0  0  0  0  0  0  0  0  0
    2.8579   -4.9500    0.0000 C   0  0  0  0  0  0  0  0  0  0  0  0
    2.8579   -4.1250    0.0000 O   0  0  0  0  0  0  0  0  0  0  0  0
    2.1434   -5.3625    0.0000 N   0  0  0  0  0  0  0  0  0  0  0  0
    1.4289   -4.9500    0.0000 C   0  0  0  0  0  0  0  0  0  0  0  0
    0.7145   -5.3625    0.0000 C   0  0  0  0  0  0  0  0  0  0  0  0
   -0.0000   -4.9500    0.0000 C   0  0  0  0  0  0  0  0  0  0  0  0
   -0.0000   -4.1250    0.0000 C   0  0  0  0  0  0  0  0  0  0  0  0
   -0.7145   -3.7125    0.0000 C   0  0  0  0  0  0  0  0  0  0  0  0
   -1.4289   -4.1250    0.0000 N   0  0  0  0  0  0  0  0  0  0  0  0
   -0.7145   -2.8875    0.0000 N   0  0  0  0  0  0  0  0  0  0  0  0
    0.7145   -3.7125    0.0000 C   0  0  0  0  0  0  0  0  0  0  0  0
    1.4289   -4.1250    0.0000 C   0  0  0  0  0  0  0  0  0  0  0  0
    2.1434   -3.7125    0.0000 F   0  0  0  0  0  0  0  0  0  0  0  0
    4.2868   -4.1250    0.0000 C   0  0  0  0  0  0  0  0  0  0  0  0
    3.5724   -3.7125    0.0000 O   0  0  0  0  0  0  0  0  0  0  0  0
    4.2868   -2.4750    0.0000 C   0  0  0  0  0  0  0  0  0  0  0  0
    4.2868   -1.6500    0.0000 C   0  0  0  0  0  0  0  0  0  0  0  0
  1  2  1  0  0  0  0
  2  3  1  0  0  0  0
  2  4  1  0  0  0  0
  2  5  1  0  0  0  0
  5  6  4  0  0  0  0
  6  7  4  0  0  0  0
  7  8  4  0  0  0  0
  8  9  1  0  0  0  0
  9 10  1  0  0  0  0
 10 11  1  0  0  0  0
 11 12  1  0  0  0  0
 12 13  1  0  0  0  0
 13 14  1  6  0  0  0
 14 15  1  1  0  0  0
 14 16  1  0  0  0  0
 16 17  2  0  0  0  0
 16 18  1  0  0  0  0
 18 19  1  0  0  0  0
 19 20  4  0  0  0  0
 20 21  4  0  0  0  0
 21 22  4  0  0  0  0
 22 23  1  0  0  0  0
 23 24  2  0  0  0  0
 23 25  1  0  0  0  0
 22 26  4  0  0  0  0
 26 27  4  0  0  0  0
 19 27  4  0  0  0  0
 27 28  1  0  0  0  0
 13 29  1  0  0  0  0
  9 29  1  0  0  0  0
 29 30  2  0  0  0  0
  8 31  4  0  0  0  0
 31 32  4  0  0  0  0
  5 32  4  0  0  0  0
M  END
>  <CdId>
358491

>  <Mol Weight>
442.4833

>  <Formula>
C23H27FN4O4

>  <cmpd_chemblid>
CHEMBL3658387

>  <std_type>
Ki

>  <std_value>
30.0

>  <std_unit>
nM

>  <target_id>
CHEMBL2016

>  <target_name>
Coagulation factor IX

>  <organism>
Homo sapiens

>  <target_type>
SINGLE PROTEIN

$$$$

  Mrv0541 08052111042D          

 34 37  0  0  0  0            999 V2000
   -5.3649   -1.3480    0.0000 N   0  0  0  0  0  0  0  0  0  0  0  0
   -4.9524   -2.0625    0.0000 C   0  0  0  0  0  0  0  0  0  0  0  0
   -5.3649   -2.7770    0.0000 N   0  0  0  0  0  0  0  0  0  0  0  0
   -4.1274   -2.0625    0.0000 C   0  0  0  0  0  0  0  0  0  0  0  0
   -3.6425   -1.3951    0.0000 C   0  0  0  0  0  0  0  0  0  0  0  0
   -2.8579   -1.6500    0.0000 C   0  0  0  0  0  0  0  0  0  0  0  0
   -2.1434   -1.2375    0.0000 C   0  0  0  0  0  0  0  0  0  0  0  0
   -2.1434   -0.4125    0.0000 O   0  0  0  0  0  0  0  0  0  0  0  0
   -1.4289   -0.0000    0.0000 C   0  0  0  0  0  0  0  0  0  0  0  0
   -0.7145   -0.4125    0.0000 C   0  0  0  0  0  0  0  0  0  0  0  0
    0.0000   -0.0000    0.0000 O   0  0  0  0  0  0  0  0  0  0  0  0
    0.7145   -0.4125    0.0000 C   0  0  0  0  0  0  0  0  0  0  0  0
    0.7145   -1.2375    0.0000 O   0  0  0  0  0  0  0  0  0  0  0  0
    1.4289   -0.0000    0.0000 N   0  0  0  0  0  0  0  0  0  0  0  0
    2.1434   -0.4125    0.0000 C   0  0  0  0  0  0  0  0  0  0  0  0
    2.8579   -0.0000    0.0000 C   0  0  0  0  0  0  0  0  0  0  0  0
    3.5724   -0.4125    0.0000 C   0  0  0  0  0  0  0  0  0  0  0  0
    3.5724   -1.2375    0.0000 C   0  0  0  0  0  0  0  0  0  0  0  0
    2.8579   -1.6500    0.0000 C   0  0  0  0  0  0  0  0  0  0  0  0
    2.1434   -1.2375    0.0000 C   0  0  0  0  0  0  0  0  0  0  0  0
    1.4289   -1.6500    0.0000 C   0  0  0  0  0  0  0  0  0  0  0  0
    1.4289   -2.4750    0.0000 N   0  0  0  0  0  0  0  0  0  0  0  0
   -1.4289    0.8250    0.0000 C   0  0  0  0  0  0  0  0  0  0  0  0
   -2.1434    1.2375    0.0000 C   0  0  0  0  0  0  0  0  0  0  0  0
   -2.1434    2.0625    0.0000 C   0  0  0  0  0  0  0  0  0  0  0  0
   -1.4289    2.4750    0.0000 C   0  0  0  0  0  0  0  0  0  0  0  0
   -0.7145    2.0625    0.0000 C   0  0  0  0  0  0  0  0  0  0  0  0
   -0.7145    1.2375    0.0000 C   0  0  0  0  0  0  0  0  0  0  0  0
   -1.4289   -1.6500    0.0000 C   0  0  0  0  0  0  0  0  0  0  0  0
   -1.4289   -2.4750    0.0000 C   0  0  0  0  0  0  0  0  0  0  0  0
   -0.7145   -2.8875    0.0000 F   0  0  0  0  0  0  0  0  0  0  0  0
   -2.1434   -2.8875    0.0000 C   0  0  0  0  0  0  0  0  0  0  0  0
   -2.8579   -2.4750    0.0000 C   0  0  0  0  0  0  0  0  0  0  0  0
   -3.6425   -2.7299    0.0000 S   0  0  0  0  0  0  0  0  0  0  0  0
  1  2  2  0  0  0  0
  2  3  1  0  0  0  0
  2  4  1  0  0  0  0
  4  5  4  0  0  0  0
  5  6  4  0  0  0  0
  6  7  4  0  0  0  0
  7  8  1  0  0  0  0
  8  9  1  0  0  0  0
  9 10  1  0  0  0  0
 10 11  1  0  0  0  0
 11 12  1  0  0  0  0
 12 13  2  0  0  0  0
 12 14  1  0  0  0  0
 14 15  1  0  0  0  0
 15 16  4  0  0  0  0
 16 17  4  0  0  0  0
 17 18  4  0  0  0  0
 18 19  4  0  0  0  0
 19 20  4  0  0  0  0
 15 20  4  0  0  0  0
 20 21  1  0  0  0  0
 21 22  1  0  0  0  0
  9 23  1  0  0  0  0
 23 24  4  0  0  0  0
 24 25  4  0  0  0  0
 25 26  4  0  0  0  0
 26 27  4  0  0  0  0
 27 28  4  0  0  0  0
 23 28  4  0  0  0  0
  7 29  4  0  0  0  0
 29 30  4  0  0  0  0
 30 31  1  0  0  0  0
 30 32  4  0  0  0  0
 32 33  4  0  0  0  0
  6 33  4  0  0  0  0
 33 34  4  0  0  0  0
  4 34  4  0  0  0  0
M  END
>  <CdId>
358493

>  <Mol Weight>
478.539

>  <Formula>
C25H23FN4O3S

>  <cmpd_chemblid>
CHEMBL601241

>  <std_type>
Ki

>  <std_value>
4.4

>  <std_unit>
nM

>  <target_id>
CHEMBL2016

>  <target_name>
Coagulation factor IX

>  <organism>
Homo sapiens

>  <target_type>
SINGLE PROTEIN

$$$$

  Mrv0541 08052111042D          

 40 44  0  0  1  0            999 V2000
   -1.2671   -2.2539    0.0000 C   0  0  0  0  0  0  0  0  0  0  0  0
   -1.6796   -1.5395    0.0000 C   0  0  0  0  0  0  0  0  0  0  0  0
   -2.5046   -1.5395    0.0000 O   0  0  0  0  0  0  0  0  0  0  0  0
   -1.2671   -0.8250    0.0000 N   0  0  0  0  0  0  0  0  0  0  0  0
   -1.6796   -0.1105    0.0000 C   0  0  0  0  0  0  0  0  0  0  0  0
   -2.5046   -0.1105    0.0000 C   0  0  0  0  0  0  0  0  0  0  0  0
   -2.9171    0.6039    0.0000 C   0  0  0  0  0  0  0  0  0  0  0  0
   -2.5046    1.3184    0.0000 C   0  0  0  0  0  0  0  0  0  0  0  0
   -2.9171    2.0329    0.0000 Cl  0  0  0  0  0  0  0  0  0  0  0  0
   -1.6796    1.3184    0.0000 C   0  0  0  0  0  0  0  0  0  0  0  0
   -1.2671    2.0329    0.0000 F   0  0  0  0  0  0  0  0  0  0  0  0
   -1.2671    0.6039    0.0000 C   0  0  0  0  0  0  0  0  0  0  0  0
   -0.4421    0.6039    0.0000 C   0  0  0  0  0  0  0  0  0  0  0  0
   -0.0296    1.3184    0.0000 C   0  0  0  0  0  0  0  0  0  0  0  0
    0.7954    1.3184    0.0000 C   0  0  0  0  0  0  0  0  0  0  0  0
    1.2079    2.0329    0.0000 O   0  0  0  0  0  0  0  0  0  0  0  0
    1.2079    0.6039    0.0000 N   0  0  0  0  0  0  0  0  0  0  0  0
    2.0329    0.6039    0.0000 C   0  0  1  0  0  0  0  0  0  0  0  0
    2.4454    1.3184    0.0000 C   0  0  0  0  0  0  0  0  0  0  0  0
    3.2704    1.3184    0.0000 C   0  0  0  0  0  0  0  0  0  0  0  0
    3.6829    2.0329    0.0000 C   0  0  0  0  0  0  0  0  0  0  0  0
    4.5079    2.0329    0.0000 C   0  0  1  0  0  0  0  0  0  0  0  0
    4.9204    2.7474    0.0000 C   0  0  0  0  0  0  0  0  0  0  0  0
    4.9204    1.3184    0.0000 C   0  0  0  0  0  0  0  0  0  0  0  0
    5.7454    1.3184    0.0000 O   0  0  0  0  0  0  0  0  0  0  0  0
    4.5079    0.6039    0.0000 N   0  0  0  0  0  0  0  0  0  0  0  0
    4.9204   -0.1105    0.0000 C   0  0  0  0  0  0  0  0  0  0  0  0
    5.7454   -0.1105    0.0000 C   0  0  0  0  0  0  0  0  0  0  0  0
    6.1579   -0.8250    0.0000 C   0  0  0  0  0  0  0  0  0  0  0  0
    5.7454   -1.5395    0.0000 C   0  0  0  0  0  0  0  0  0  0  0  0
    4.9204   -1.5395    0.0000 C   0  0  0  0  0  0  0  0  0  0  0  0
    4.5079   -0.8250    0.0000 C   0  0  0  0  0  0  0  0  0  0  0  0
    3.6829   -0.8250    0.0000 C   0  0  0  0  0  0  0  0  0  0  0  0
    3.2704   -1.5395    0.0000 C   0  0  0  0  0  0  0  0  0  0  0  0
    2.4454   -1.5395    0.0000 C   0  0  0  0  0  0  0  0  0  0  0  0
    2.0329   -0.8250    0.0000 N   0  0  0  0  0  0  0  0  0  0  0  0
    2.4454   -0.1105    0.0000 C   0  0  0  0  0  0  0  0  0  0  0  0
    3.2704   -0.1105    0.0000 C   0  0  0  0  0  0  0  0  0  0  0  0
    0.7954   -0.1105    0.0000 C   0  0  0  0  0  0  0  0  0  0  0  0
   -0.0296   -0.1105    0.0000 C   0  0  0  0  0  0  0  0  0  0  0  0
  1  2  1  0  0  0  0
  2  3  2  0  0  0  0
  2  4  1  0  0  0  0
  4  5  1  0  0  0  0
  5  6  4  0  0  0  0
  6  7  4  0  0  0  0
  7  8  4  0  0  0  0
  8  9  1  0  0  0  0
  8 10  4  0  0  0  0
 10 11  1  0  0  0  0
 10 12  4  0  0  0  0
  5 12  4  0  0  0  0
 12 13  1  0  0  0  0
 13 14  2  0  0  0  0
 14 15  1  0  0  0  0
 15 16  2  0  0  0  0
 15 17  1  0  0  0  0
 18 17  1  1  0  0  0
 18 19  1  0  0  0  0
 19 20  1  0  0  0  0
 20 21  1  0  0  0  0
 21 22  1  0  0  0  0
 22 23  1  1  0  0  0
 22 24  1  0  0  0  0
 24 25  2  0  0  0  0
 24 26  1  0  0  0  0
 26 27  1  0  0  0  0
 27 28  4  0  0  0  0
 28 29  4  0  0  0  0
 29 30  4  0  0  0  0
 30 31  4  0  0  0  0
 31 32  4  0  0  0  0
 27 32  4  0  0  0  0
 32 33  1  0  0  0  0
 33 34  4  0  0  0  0
 34 35  4  0  0  0  0
 35 36  4  0  0  0  0
 36 37  4  0  0  0  0
 18 37  1  0  0  0  0
 37 38  4  0  0  0  0
 33 38  4  0  0  0  0
 17 39  1  0  0  0  0
 39 40  1  0  0  0  0
 13 40  1  0  0  0  0
M  END
>  <CdId>
358495

>  <Mol Weight>
561.046

>  <Formula>
C31H30ClFN4O3

>  <cmpd_chemblid>
CHEMBL4108548

>  <std_type>
Ki

>  <std_value>
75.09

>  <std_unit>
nM

>  <target_id>
CHEMBL2016

>  <target_name>
Coagulation factor IX

>  <organism>
Homo sapiens

>  <target_type>
SINGLE PROTEIN

$$$$

  Mrv0541 08052111042D          

 41 45  0  0  1  0            999 V2000
    8.3102   -2.3717    0.0000 C   0  0  0  0  0  0  0  0  0  0  0  0
    7.9481   -1.6304    0.0000 O   0  0  0  0  0  0  0  0  0  0  0  0
    7.1251   -1.5734    0.0000 C   0  0  0  0  0  0  0  0  0  0  0  0
    6.6642   -2.2577    0.0000 O   0  0  0  0  0  0  0  0  0  0  0  0
    6.7629   -0.8321    0.0000 N   0  0  0  0  0  0  0  0  0  0  0  0
    5.9399   -0.7751    0.0000 C   0  0  0  0  0  0  0  0  0  0  0  0
    5.5778   -0.0339    0.0000 C   0  0  0  0  0  0  0  0  0  0  0  0
    4.7547    0.0231    0.0000 C   0  0  0  0  0  0  0  0  0  0  0  0
    4.2938   -0.6611    0.0000 C   0  0  0  0  0  0  0  0  0  0  0  0
    4.6560   -1.4024    0.0000 C   0  0  0  0  0  0  0  0  0  0  0  0
    5.4790   -1.4594    0.0000 C   0  0  0  0  0  0  0  0  0  0  0  0
    4.1951   -2.0867    0.0000 N   0  0  0  0  0  0  0  0  0  0  0  0
    4.5573   -2.8279    0.0000 C   0  0  0  0  0  0  0  0  0  0  0  0
    5.3803   -2.8849    0.0000 O   0  0  0  0  0  0  0  0  0  0  0  0
    4.0964   -3.5122    0.0000 C   0  0  2  0  0  0  0  0  0  0  0  0
    4.4585   -4.2534    0.0000 C   0  0  0  0  0  0  0  0  0  0  0  0
    3.2733   -3.4552    0.0000 C   0  0  0  0  0  0  0  0  0  0  0  0
    2.9112   -2.7139    0.0000 C   0  0  0  0  0  0  0  0  0  0  0  0
    2.0882   -2.6569    0.0000 C   0  0  0  0  0  0  0  0  0  0  0  0
    1.7260   -1.9156    0.0000 C   0  0  2  0  0  0  0  0  0  0  0  0
    0.9030   -1.8586    0.0000 N   0  0  0  0  0  0  0  0  0  0  0  0
    0.4421   -2.5429    0.0000 C   0  0  0  0  0  0  0  0  0  0  0  0
   -0.3809   -2.4859    0.0000 C   0  0  0  0  0  0  0  0  0  0  0  0
   -0.7431   -1.7446    0.0000 C   0  0  0  0  0  0  0  0  0  0  0  0
   -1.5661   -1.6876    0.0000 C   0  0  0  0  0  0  0  0  0  0  0  0
   -2.0270   -2.3719    0.0000 C   0  0  0  0  0  0  0  0  0  0  0  0
   -2.8500   -2.3148    0.0000 C   0  0  0  0  0  0  0  0  0  0  0  0
   -3.2121   -1.5736    0.0000 C   0  0  0  0  0  0  0  0  0  0  0  0
   -2.7513   -0.8893    0.0000 C   0  0  0  0  0  0  0  0  0  0  0  0
   -3.1134   -0.1481    0.0000 Cl  0  0  0  0  0  0  0  0  0  0  0  0
   -1.9282   -0.9463    0.0000 C   0  0  0  0  0  0  0  0  0  0  0  0
   -1.4673   -0.2621    0.0000 F   0  0  0  0  0  0  0  0  0  0  0  0
   -0.2822   -1.0603    0.0000 C   0  0  0  0  0  0  0  0  0  0  0  0
    0.5409   -1.1174    0.0000 C   0  0  0  0  0  0  0  0  0  0  0  0
    1.0017   -0.4331    0.0000 O   0  0  0  0  0  0  0  0  0  0  0  0
    2.1869   -1.2314    0.0000 C   0  0  0  0  0  0  0  0  0  0  0  0
    3.0099   -1.2884    0.0000 N   0  0  0  0  0  0  0  0  0  0  0  0
    3.4708   -0.6041    0.0000 C   0  0  0  0  0  0  0  0  0  0  0  0
    2.8128   -0.0523    0.0000 C   0  0  0  0  0  0  0  0  0  0  0  0
    2.9130    0.7666    0.0000 C   0  0  0  0  0  0  0  0  0  0  0  0
    2.0716   -0.4145    0.0000 N   0  0  0  0  0  0  0  0  0  0  0  0
  1  2  1  0  0  0  0
  2  3  1  0  0  0  0
  3  4  2  0  0  0  0
  3  5  1  0  0  0  0
  5  6  1  0  0  0  0
  6  7  4  0  0  0  0
  7  8  4  0  0  0  0
  8  9  4  0  0  0  0
  9 10  4  0  0  0  0
 10 11  4  0  0  0  0
  6 11  4  0  0  0  0
 10 12  1  0  0  0  0
 12 13  1  0  0  0  0
 13 14  2  0  0  0  0
 13 15  1  0  0  0  0
 15 16  1  6  0  0  0
 15 17  1  0  0  0  0
 17 18  1  0  0  0  0
 18 19  1  0  0  0  0
 19 20  1  0  0  0  0
 20 21  1  6  0  0  0
 21 22  1  0  0  0  0
 22 23  1  0  0  0  0
 23 24  1  0  0  0  0
 24 25  1  0  0  0  0
 25 26  4  0  0  0  0
 26 27  4  0  0  0  0
 27 28  4  0  0  0  0
 28 29  4  0  0  0  0
 29 30  1  0  0  0  0
 29 31  4  0  0  0  0
 25 31  4  0  0  0  0
 31 32  1  0  0  0  0
 24 33  2  0  0  0  0
 33 34  1  0  0  0  0
 21 34  1  0  0  0  0
 34 35  2  0  0  0  0
 20 36  1  0  0  0  0
 36 37  4  0  0  0  0
 37 38  4  0  0  0  0
  9 38  1  0  0  0  0
 38 39  4  0  0  0  0
 39 40  1  0  0  0  0
 39 41  4  0  0  0  0
 36 41  4  0  0  0  0
M  STY  1   1 DAT
M  SAL   1  1  41
M  SDT   1 MRV_IMPLICIT_H                                        
M  SDD   1     0.0000    0.0000    DR    ALL  0       0  
M  SED   1 IMPL_H1
M  END
>  <CdId>
358497

>  <Mol Weight>
580.05

>  <Formula>
C30H31ClFN5O4

>  <cmpd_chemblid>
CHEMBL4109928

>  <std_type>
Ki

>  <std_value>
0.84

>  <std_unit>
nM

>  <target_id>
CHEMBL2016

>  <target_name>
Coagulation factor IX

>  <organism>
Homo sapiens

>  <target_type>
SINGLE PROTEIN

$$$$

  Mrv0541 08052111042D          

 22 24  0  0  0  0            999 V2000
   -0.5837   -1.4124    0.0000 N   0  0  0  0  0  0  0  0  0  0  0  0
   -0.1712   -0.6979    0.0000 C   0  0  0  0  0  0  0  0  0  0  0  0
   -0.5837    0.0165    0.0000 N   0  0  0  0  0  0  0  0  0  0  0  0
    0.6538   -0.6979    0.0000 C   0  0  0  0  0  0  0  0  0  0  0  0
    1.1387   -0.0305    0.0000 C   0  0  0  0  0  0  0  0  0  0  0  0
    1.9233   -0.2854    0.0000 C   0  0  0  0  0  0  0  0  0  0  0  0
    2.6378    0.1271    0.0000 C   0  0  0  0  0  0  0  0  0  0  0  0
    2.6378    0.9521    0.0000 O   0  0  0  0  0  0  0  0  0  0  0  0
    1.9233    1.3646    0.0000 C   0  0  0  0  0  0  0  0  0  0  0  0
    1.2089    0.9521    0.0000 C   0  0  0  0  0  0  0  0  0  0  0  0
    0.4944    1.3646    0.0000 N   0  0  0  0  0  0  0  0  0  0  0  0
    1.9233    2.1896    0.0000 C   0  0  0  0  0  0  0  0  0  0  0  0
    1.2089    2.6021    0.0000 C   0  0  0  0  0  0  0  0  0  0  0  0
    1.2089    3.4271    0.0000 C   0  0  0  0  0  0  0  0  0  0  0  0
    1.9233    3.8396    0.0000 C   0  0  0  0  0  0  0  0  0  0  0  0
    2.6378    3.4271    0.0000 C   0  0  0  0  0  0  0  0  0  0  0  0
    2.6378    2.6021    0.0000 C   0  0  0  0  0  0  0  0  0  0  0  0
    3.3523   -0.2854    0.0000 C   0  0  0  0  0  0  0  0  0  0  0  0
    3.3523   -1.1104    0.0000 C   0  0  0  0  0  0  0  0  0  0  0  0
    2.6378   -1.5229    0.0000 C   0  0  0  0  0  0  0  0  0  0  0  0
    1.9233   -1.1104    0.0000 C   0  0  0  0  0  0  0  0  0  0  0  0
    1.1387   -1.3654    0.0000 S   0  0  0  0  0  0  0  0  0  0  0  0
  1  2  2  0  0  0  0
  2  3  1  0  0  0  0
  2  4  1  0  0  0  0
  4  5  4  0  0  0  0
  5  6  4  0  0  0  0
  6  7  4  0  0  0  0
  7  8  1  0  0  0  0
  8  9  1  0  0  0  0
  9 10  1  0  0  0  0
 10 11  1  0  0  0  0
  9 12  1  0  0  0  0
 12 13  4  0  0  0  0
 13 14  4  0  0  0  0
 14 15  4  0  0  0  0
 15 16  4  0  0  0  0
 16 17  4  0  0  0  0
 12 17  4  0  0  0  0
  7 18  4  0  0  0  0
 18 19  4  0  0  0  0
 19 20  4  0  0  0  0
 20 21  4  0  0  0  0
  6 21  4  0  0  0  0
 21 22  4  0  0  0  0
  4 22  4  0  0  0  0
M  END
>  <CdId>
358499

>  <Mol Weight>
311.401

>  <Formula>
C17H17N3OS

>  <cmpd_chemblid>
CHEMBL610516

>  <std_type>
Ki

>  <std_value>
160.0

>  <std_unit>
nM

>  <target_id>
CHEMBL2016

>  <target_name>
Coagulation factor IX

>  <organism>
Homo sapiens

>  <target_type>
SINGLE PROTEIN

$$$$

  Mrv0541 08052111042D          

 26 28  0  0  0  0            999 V2000
   -2.1434   -3.7125    0.0000 C   0  0  0  0  0  0  0  0  0  0  0  0
   -1.4289   -3.3000    0.0000 N   0  0  0  0  0  0  0  0  0  0  0  0
   -0.7145   -3.7125    0.0000 C   0  0  0  0  0  0  0  0  0  0  0  0
   -0.7145   -4.5375    0.0000 O   0  0  0  0  0  0  0  0  0  0  0  0
    0.0000   -3.3000    0.0000 O   0  0  0  0  0  0  0  0  0  0  0  0
    0.7145   -3.7125    0.0000 C   0  0  0  0  0  0  0  0  0  0  0  0
    1.4289   -3.3000    0.0000 C   0  0  0  0  0  0  0  0  0  0  0  0
    2.1434   -3.7125    0.0000 O   0  0  0  0  0  0  0  0  0  0  0  0
    2.8579   -3.3000    0.0000 C   0  0  0  0  0  0  0  0  0  0  0  0
    2.8579   -2.4750    0.0000 C   0  0  0  0  0  0  0  0  0  0  0  0
    3.5724   -2.0625    0.0000 C   0  0  0  0  0  0  0  0  0  0  0  0
    4.2868   -2.4750    0.0000 C   0  0  0  0  0  0  0  0  0  0  0  0
    4.2868   -3.3000    0.0000 C   0  0  0  0  0  0  0  0  0  0  0  0
    4.8999   -3.8520    0.0000 S   0  0  0  0  0  0  0  0  0  0  0  0
    4.5644   -4.6057    0.0000 C   0  0  0  0  0  0  0  0  0  0  0  0
    4.9769   -5.3202    0.0000 C   0  0  0  0  0  0  0  0  0  0  0  0
    5.8019   -5.3202    0.0000 N   0  0  0  0  0  0  0  0  0  0  0  0
    4.5644   -6.0346    0.0000 N   0  0  0  0  0  0  0  0  0  0  0  0
    3.7439   -4.5195    0.0000 C   0  0  0  0  0  0  0  0  0  0  0  0
    3.5724   -3.7125    0.0000 C   0  0  0  0  0  0  0  0  0  0  0  0
    1.4289   -2.4750    0.0000 C   0  0  0  0  0  0  0  0  0  0  0  0
    0.7145   -2.0625    0.0000 C   0  0  0  0  0  0  0  0  0  0  0  0
    0.7145   -1.2375    0.0000 C   0  0  0  0  0  0  0  0  0  0  0  0
    1.4289   -0.8250    0.0000 C   0  0  0  0  0  0  0  0  0  0  0  0
    2.1434   -1.2375    0.0000 C   0  0  0  0  0  0  0  0  0  0  0  0
    2.1434   -2.0625    0.0000 C   0  0  0  0  0  0  0  0  0  0  0  0
  1  2  1  0  0  0  0
  2  3  1  0  0  0  0
  3  4  2  0  0  0  0
  3  5  1  0  0  0  0
  5  6  1  0  0  0  0
  6  7  1  0  0  0  0
  7  8  1  0  0  0  0
  8  9  1  0  0  0  0
  9 10  4  0  0  0  0
 10 11  4  0  0  0  0
 11 12  4  0  0  0  0
 12 13  4  0  0  0  0
 13 14  4  0  0  0  0
 14 15  4  0  0  0  0
 15 16  1  0  0  0  0
 16 17  2  0  0  0  0
 16 18  1  0  0  0  0
 15 19  4  0  0  0  0
 19 20  4  0  0  0  0
  9 20  4  0  0  0  0
 13 20  4  0  0  0  0
  7 21  1  0  0  0  0
 21 22  4  0  0  0  0
 22 23  4  0  0  0  0
 23 24  4  0  0  0  0
 24 25  4  0  0  0  0
 25 26  4  0  0  0  0
 21 26  4  0  0  0  0
M  END
>  <CdId>
358500

>  <Mol Weight>
369.437

>  <Formula>
C19H19N3O3S

>  <cmpd_chemblid>
CHEMBL599415

>  <std_type>
Ki

>  <std_value>
97.0

>  <std_unit>
nM

>  <target_id>
CHEMBL2016

>  <target_name>
Coagulation factor IX

>  <organism>
Homo sapiens

>  <target_type>
SINGLE PROTEIN

$$$$

  Mrv0541 08052111042D          

 39 44  0  0  0  0            999 V2000
   11.5058    1.7798    0.0000 N   0  0  0  0  0  0  0  0  0  0  0  0
   10.7914    1.3673    0.0000 C   0  0  0  0  0  0  0  0  0  0  0  0
   10.7914    0.5423    0.0000 N   0  0  0  0  0  0  0  0  0  0  0  0
   10.0769    1.7798    0.0000 C   0  0  0  0  0  0  0  0  0  0  0  0
   10.0769    2.6048    0.0000 C   0  0  0  0  0  0  0  0  0  0  0  0
    9.3624    3.0173    0.0000 C   0  0  0  0  0  0  0  0  0  0  0  0
    8.6480    2.6048    0.0000 C   0  0  0  0  0  0  0  0  0  0  0  0
    7.8633    2.8597    0.0000 N   0  0  0  0  0  0  0  0  0  0  0  0
    7.3784    2.1923    0.0000 C   0  0  0  0  0  0  0  0  0  0  0  0
    7.8633    1.5248    0.0000 C   0  0  0  0  0  0  0  0  0  0  0  0
    7.6084    0.7402    0.0000 C   0  0  0  0  0  0  0  0  0  0  0  0
    8.1604    0.1271    0.0000 C   0  0  0  0  0  0  0  0  0  0  0  0
    7.9055   -0.6575    0.0000 C   0  0  0  0  0  0  0  0  0  0  0  0
    7.0985   -0.8290    0.0000 O   0  0  0  0  0  0  0  0  0  0  0  0
    8.4575   -1.2706    0.0000 N   0  0  0  0  0  0  0  0  0  0  0  0
    8.2026   -2.0552    0.0000 C   0  0  0  0  0  0  0  0  0  0  0  0
    8.7546   -2.6683    0.0000 C   0  0  0  0  0  0  0  0  0  0  0  0
    8.4997   -3.4529    0.0000 C   0  0  0  0  0  0  0  0  0  0  0  0
    7.6927   -3.6245    0.0000 C   0  0  0  0  0  0  0  0  0  0  0  0
    7.4378   -4.4091    0.0000 N   0  0  0  0  0  0  0  0  0  0  0  0
    7.9227   -5.0765    0.0000 C   0  0  0  0  0  0  0  0  0  0  0  0
    7.4378   -5.7440    0.0000 N   0  0  0  0  0  0  0  0  0  0  0  0
    6.6531   -5.4890    0.0000 C   0  0  0  0  0  0  0  0  0  0  0  0
    5.9387   -5.9015    0.0000 C   0  0  0  0  0  0  0  0  0  0  0  0
    5.2242   -5.4890    0.0000 C   0  0  0  0  0  0  0  0  0  0  0  0
    5.2242   -4.6640    0.0000 C   0  0  0  0  0  0  0  0  0  0  0  0
    5.9387   -4.2515    0.0000 C   0  0  0  0  0  0  0  0  0  0  0  0
    6.6531   -4.6640    0.0000 C   0  0  0  0  0  0  0  0  0  0  0  0
    7.1407   -3.0114    0.0000 C   0  0  0  0  0  0  0  0  0  0  0  0
    7.3956   -2.2267    0.0000 C   0  0  0  0  0  0  0  0  0  0  0  0
    6.8014    0.5687    0.0000 C   0  0  0  0  0  0  0  0  0  0  0  0
    6.2494    1.1818    0.0000 C   0  0  0  0  0  0  0  0  0  0  0  0
    5.4424    1.0103    0.0000 C   0  0  0  0  0  0  0  0  0  0  0  0
    4.8904    1.6234    0.0000 C   0  0  0  0  0  0  0  0  0  0  0  0
    5.1453    2.4080    0.0000 C   0  0  0  0  0  0  0  0  0  0  0  0
    5.9523    2.5795    0.0000 C   0  0  0  0  0  0  0  0  0  0  0  0
    6.5043    1.9664    0.0000 C   0  0  0  0  0  0  0  0  0  0  0  0
    8.6480    1.7798    0.0000 C   0  0  0  0  0  0  0  0  0  0  0  0
    9.3624    1.3673    0.0000 C   0  0  0  0  0  0  0  0  0  0  0  0
  1  2  2  0  0  0  0
  2  3  1  0  0  0  0
  2  4  1  0  0  0  0
  4  5  4  0  0  0  0
  5  6  4  0  0  0  0
  6  7  4  0  0  0  0
  7  8  4  0  0  0  0
  8  9  4  0  0  0  0
  9 10  4  0  0  0  0
 10 11  1  0  0  0  0
 11 12  1  0  0  0  0
 12 13  1  0  0  0  0
 13 14  2  0  0  0  0
 13 15  1  0  0  0  0
 15 16  1  0  0  0  0
 16 17  4  0  0  0  0
 17 18  4  0  0  0  0
 18 19  4  0  0  0  0
 19 20  1  0  0  0  0
 20 21  4  0  0  0  0
 21 22  4  0  0  0  0
 22 23  4  0  0  0  0
 23 24  4  0  0  0  0
 24 25  4  0  0  0  0
 25 26  4  0  0  0  0
 26 27  4  0  0  0  0
 27 28  4  0  0  0  0
 23 28  4  0  0  0  0
 20 28  4  0  0  0  0
 19 29  4  0  0  0  0
 29 30  4  0  0  0  0
 16 30  4  0  0  0  0
 11 31  1  0  0  0  0
 31 32  1  0  0  0  0
 32 33  4  0  0  0  0
 33 34  4  0  0  0  0
 34 35  4  0  0  0  0
 35 36  4  0  0  0  0
 36 37  4  0  0  0  0
 32 37  4  0  0  0  0
 10 38  4  0  0  0  0
  7 38  4  0  0  0  0
 38 39  4  0  0  0  0
  4 39  4  0  0  0  0
M  STY  1   1 DAT
M  SAL   1  1   8
M  SDT   1 MRV_IMPLICIT_H                                        
M  SDD   1     0.0000    0.0000    DR    ALL  0       0  
M  SED   1 IMPL_H1
M  END
>  <CdId>
358502

>  <Mol Weight>
512.6043

>  <Formula>
C32H28N6O

>  <cmpd_chemblid>
CHEMBL183417

>  <std_type>
Ki

>  <std_value>
250.0

>  <std_unit>
nM

>  <target_id>
CHEMBL2016

>  <target_name>
Coagulation factor IX

>  <organism>
Homo sapiens

>  <target_type>
SINGLE PROTEIN

$$$$

  Mrv0541 08052111042D          

 38 43  0  0  1  0            999 V2000
   -1.4066   -1.6301    0.0000 C   0  0  0  0  0  0  0  0  0  0  0  0
   -0.5996   -1.8016    0.0000 C   0  0  0  0  0  0  0  0  0  0  0  0
   -0.3446   -2.5862    0.0000 C   0  0  0  0  0  0  0  0  0  0  0  0
    0.4623   -2.7578    0.0000 C   0  0  0  0  0  0  0  0  0  0  0  0
    1.0144   -2.1447    0.0000 C   0  0  0  0  0  0  0  0  0  0  0  0
    1.8394   -2.1447    0.0000 C   0  0  0  0  0  0  0  0  0  0  0  0
    2.0943   -1.3601    0.0000 C   0  0  0  0  0  0  0  0  0  0  0  0
    1.4269   -0.8751    0.0000 N   0  0  0  0  0  0  0  0  0  0  0  0
    0.7594   -1.3601    0.0000 N   0  0  0  0  0  0  0  0  0  0  0  0
   -0.0476   -1.1885    0.0000 C   0  0  0  0  0  0  0  0  0  0  0  0
    2.9013   -1.1885    0.0000 C   0  0  0  0  0  0  0  0  0  0  0  0
    3.4533   -1.8016    0.0000 C   0  0  0  0  0  0  0  0  0  0  0  0
    3.1984   -2.5862    0.0000 C   0  0  2  0  0  0  0  0  0  0  0  0
    4.0153   -2.7011    0.0000 N   0  0  0  0  0  0  0  0  0  0  0  0
    4.5233   -2.0510    0.0000 C   0  0  0  0  0  0  0  0  0  0  0  0
    4.2142   -1.2860    0.0000 O   0  0  0  0  0  0  0  0  0  0  0  0
    5.3402   -2.1658    0.0000 C   0  0  0  0  0  0  0  0  0  0  0  0
    5.8481   -1.5157    0.0000 C   0  0  0  0  0  0  0  0  0  0  0  0
    5.5391   -0.7507    0.0000 Cl  0  0  0  0  0  0  0  0  0  0  0  0
    6.6651   -1.6305    0.0000 C   0  0  0  0  0  0  0  0  0  0  0  0
    6.9742   -2.3954    0.0000 C   0  0  0  0  0  0  0  0  0  0  0  0
    7.7911   -2.5102    0.0000 N   0  0  0  0  0  0  0  0  0  0  0  0
    8.3642   -1.9168    0.0000 C   0  0  0  0  0  0  0  0  0  0  0  0
    9.1057   -2.2784    0.0000 N   0  0  0  0  0  0  0  0  0  0  0  0
    8.9909   -3.0954    0.0000 C   0  0  0  0  0  0  0  0  0  0  0  0
    9.5844   -3.6685    0.0000 C   0  0  0  0  0  0  0  0  0  0  0  0
    8.1785   -3.2387    0.0000 N   0  0  0  0  0  0  0  0  0  0  0  0
    6.4662   -3.0455    0.0000 C   0  0  0  0  0  0  0  0  0  0  0  0
    5.6493   -2.9307    0.0000 C   0  0  0  0  0  0  0  0  0  0  0  0
    5.1414   -3.5808    0.0000 Cl  0  0  0  0  0  0  0  0  0  0  0  0
    3.2272   -3.4107    0.0000 C   0  0  0  0  0  0  0  0  0  0  0  0
    3.9556   -3.7981    0.0000 C   0  0  0  0  0  0  0  0  0  0  0  0
    3.9844   -4.6226    0.0000 C   0  0  0  0  0  0  0  0  0  0  0  0
    3.2847   -5.0597    0.0000 C   0  0  0  0  0  0  0  0  0  0  0  0
    3.3135   -5.8842    0.0000 F   0  0  0  0  0  0  0  0  0  0  0  0
    2.5563   -4.6724    0.0000 C   0  0  0  0  0  0  0  0  0  0  0  0
    2.5275   -3.8479    0.0000 C   0  0  0  0  0  0  0  0  0  0  0  0
    2.3914   -2.7578    0.0000 C   0  0  0  0  0  0  0  0  0  0  0  0
  1  2  1  0  0  0  0
  2  3  4  0  0  0  0
  3  4  4  0  0  0  0
  4  5  4  0  0  0  0
  5  6  4  0  0  0  0
  6  7  4  0  0  0  0
  7  8  4  0  0  0  0
  8  9  4  0  0  0  0
  5  9  4  0  0  0  0
  9 10  4  0  0  0  0
  2 10  4  0  0  0  0
  7 11  1  0  0  0  0
 11 12  1  0  0  0  0
 12 13  1  0  0  0  0
 13 14  1  1  0  0  0
 14 15  1  0  0  0  0
 15 16  2  0  0  0  0
 15 17  1  0  0  0  0
 17 18  4  0  0  0  0
 18 19  1  0  0  0  0
 18 20  4  0  0  0  0
 20 21  4  0  0  0  0
 21 22  1  0  0  0  0
 22 23  4  0  0  0  0
 23 24  4  0  0  0  0
 24 25  4  0  0  0  0
 25 26  1  0  0  0  0
 25 27  4  0  0  0  0
 22 27  4  0  0  0  0
 21 28  4  0  0  0  0
 28 29  4  0  0  0  0
 17 29  4  0  0  0  0
 29 30  1  0  0  0  0
 13 31  1  6  0  0  0
 31 32  4  0  0  0  0
 32 33  4  0  0  0  0
 33 34  4  0  0  0  0
 34 35  1  0  0  0  0
 34 36  4  0  0  0  0
 36 37  4  0  0  0  0
 31 37  4  0  0  0  0
 13 38  1  0  0  0  0
  6 38  1  0  0  0  0
M  END
>  <CdId>
358504

>  <Mol Weight>
549.426

>  <Formula>
C28H23Cl2FN6O

>  <cmpd_chemblid>
CHEMBL3628951

>  <std_type>
Ki

>  <std_value>
4.2

>  <std_unit>
nM

>  <target_id>
CHEMBL2016

>  <target_name>
Coagulation factor IX

>  <organism>
Homo sapiens

>  <target_type>
SINGLE PROTEIN

$$$$

  Mrv0541 08052111042D          

 43 47  0  0  1  0            999 V2000
    3.9849    3.9849    0.0000 C   0  0  0  0  0  0  0  0  0  0  0  0
    4.3974    3.2704    0.0000 C   0  0  2  0  0  0  0  0  0  0  0  0
    5.2224    3.2704    0.0000 C   0  0  0  0  0  0  0  0  0  0  0  0
    5.6349    2.5559    0.0000 C   0  0  0  0  0  0  0  0  0  0  0  0
    6.4599    2.5559    0.0000 C   0  0  0  0  0  0  0  0  0  0  0  0
    6.8724    1.8414    0.0000 C   0  0  2  0  0  0  0  0  0  0  0  0
    7.6974    1.8414    0.0000 N   0  0  0  0  0  0  0  0  0  0  0  0
    8.1099    2.5559    0.0000 C   0  0  0  0  0  0  0  0  0  0  0  0
    8.9349    2.5559    0.0000 C   0  0  0  0  0  0  0  0  0  0  0  0
    9.3474    1.8414    0.0000 C   0  0  0  0  0  0  0  0  0  0  0  0
   10.1724    1.8414    0.0000 C   0  0  0  0  0  0  0  0  0  0  0  0
   10.5849    2.5559    0.0000 C   0  0  0  0  0  0  0  0  0  0  0  0
   10.1724    3.2704    0.0000 C   0  0  0  0  0  0  0  0  0  0  0  0
    9.7599    3.9849    0.0000 F   0  0  0  0  0  0  0  0  0  0  0  0
    9.4579    2.8579    0.0000 F   0  0  0  0  0  0  0  0  0  0  0  0
   10.8868    3.6829    0.0000 F   0  0  0  0  0  0  0  0  0  0  0  0
   11.4099    2.5559    0.0000 C   0  0  0  0  0  0  0  0  0  0  0  0
   11.8224    1.8414    0.0000 C   0  0  0  0  0  0  0  0  0  0  0  0
   11.4099    1.1270    0.0000 C   0  0  0  0  0  0  0  0  0  0  0  0
   11.8224    0.4125    0.0000 Cl  0  0  0  0  0  0  0  0  0  0  0  0
   10.5849    1.1270    0.0000 C   0  0  0  0  0  0  0  0  0  0  0  0
   10.1724    0.4125    0.0000 F   0  0  0  0  0  0  0  0  0  0  0  0
    8.9349    1.1270    0.0000 C   0  0  0  0  0  0  0  0  0  0  0  0
    8.1099    1.1270    0.0000 C   0  0  0  0  0  0  0  0  0  0  0  0
    7.6974    0.4125    0.0000 O   0  0  0  0  0  0  0  0  0  0  0  0
    6.4599    1.1270    0.0000 C   0  0  0  0  0  0  0  0  0  0  0  0
    5.6349    1.1270    0.0000 C   0  0  0  0  0  0  0  0  0  0  0  0
    5.2224    0.4125    0.0000 C   0  0  0  0  0  0  0  0  0  0  0  0
    5.6349   -0.3020    0.0000 C   0  0  0  0  0  0  0  0  0  0  0  0
    6.4599   -0.3020    0.0000 C   0  0  0  0  0  0  0  0  0  0  0  0
    6.8724    0.4125    0.0000 N   0  0  0  0  0  0  0  0  0  0  0  0
    4.3974    0.4125    0.0000 C   0  0  0  0  0  0  0  0  0  0  0  0
    3.9849   -0.3020    0.0000 C   0  0  0  0  0  0  0  0  0  0  0  0
    3.1599   -0.3020    0.0000 C   0  0  0  0  0  0  0  0  0  0  0  0
    2.7474   -1.0164    0.0000 C   0  0  0  0  0  0  0  0  0  0  0  0
    3.1599   -1.7309    0.0000 O   0  0  0  0  0  0  0  0  0  0  0  0
    1.9224   -1.0164    0.0000 O   0  0  0  0  0  0  0  0  0  0  0  0
    2.7474    0.4125    0.0000 C   0  0  0  0  0  0  0  0  0  0  0  0
    3.1599    1.1270    0.0000 C   0  0  0  0  0  0  0  0  0  0  0  0
    3.9849    1.1270    0.0000 C   0  0  0  0  0  0  0  0  0  0  0  0
    4.3974    1.8414    0.0000 N   0  0  0  0  0  0  0  0  0  0  0  0
    3.9849    2.5559    0.0000 C   0  0  0  0  0  0  0  0  0  0  0  0
    3.1599    2.5559    0.0000 O   0  0  0  0  0  0  0  0  0  0  0  0
  2  1  1  6  0  0  0
  2  3  1  0  0  0  0
  3  4  1  0  0  0  0
  4  5  1  0  0  0  0
  5  6  1  0  0  0  0
  6  7  1  6  0  0  0
  7  8  1  0  0  0  0
  8  9  1  0  0  0  0
  9 10  1  0  0  0  0
 10 11  1  0  0  0  0
 11 12  4  0  0  0  0
 12 13  1  0  0  0  0
 13 14  1  0  0  0  0
 13 15  1  0  0  0  0
 13 16  1  0  0  0  0
 12 17  4  0  0  0  0
 17 18  4  0  0  0  0
 18 19  4  0  0  0  0
 19 20  1  0  0  0  0
 19 21  4  0  0  0  0
 11 21  4  0  0  0  0
 21 22  1  0  0  0  0
 10 23  2  0  0  0  0
 23 24  1  0  0  0  0
  7 24  1  0  0  0  0
 24 25  2  0  0  0  0
  6 26  1  0  0  0  0
 26 27  4  0  0  0  0
 27 28  4  0  0  0  0
 28 29  4  0  0  0  0
 29 30  4  0  0  0  0
 30 31  4  0  0  0  0
 26 31  4  0  0  0  0
 28 32  1  0  0  0  0
 32 33  4  0  0  0  0
 33 34  4  0  0  0  0
 34 35  1  0  0  0  0
 35 36  2  0  0  0  0
 35 37  1  0  0  0  0
 34 38  4  0  0  0  0
 38 39  4  0  0  0  0
 39 40  4  0  0  0  0
 32 40  4  0  0  0  0
 40 41  1  0  0  0  0
 41 42  1  0  0  0  0
  2 42  1  0  0  0  0
 42 43  2  0  0  0  0
M  END
>  <CdId>
358505

>  <Mol Weight>
616.002

>  <Formula>
C31H26ClF4N3O4

>  <cmpd_chemblid>
CHEMBL4106934

>  <std_type>
Ki

>  <std_value>
0.44

>  <std_unit>
nM

>  <target_id>
CHEMBL2016

>  <target_name>
Coagulation factor IX

>  <organism>
Homo sapiens

>  <target_type>
SINGLE PROTEIN

$$$$

  Mrv0541 08052111042D          

 41 45  0  0  1  0            999 V2000
    8.2204   -1.5395    0.0000 C   0  0  0  0  0  0  0  0  0  0  0  0
    7.3954   -1.5395    0.0000 C   0  0  0  0  0  0  0  0  0  0  0  0
    6.9829   -2.2539    0.0000 O   0  0  0  0  0  0  0  0  0  0  0  0
    6.9829   -0.8250    0.0000 N   0  0  0  0  0  0  0  0  0  0  0  0
    6.1579   -0.8250    0.0000 C   0  0  0  0  0  0  0  0  0  0  0  0
    5.7454   -0.1105    0.0000 C   0  0  0  0  0  0  0  0  0  0  0  0
    4.9204   -0.1105    0.0000 C   0  0  0  0  0  0  0  0  0  0  0  0
    4.5079   -0.8250    0.0000 C   0  0  0  0  0  0  0  0  0  0  0  0
    4.9204   -1.5395    0.0000 C   0  0  0  0  0  0  0  0  0  0  0  0
    5.7454   -1.5395    0.0000 C   0  0  0  0  0  0  0  0  0  0  0  0
    4.5079   -2.2539    0.0000 N   0  0  0  0  0  0  0  0  0  0  0  0
    4.9204   -2.9684    0.0000 C   0  0  0  0  0  0  0  0  0  0  0  0
    5.7454   -2.9684    0.0000 O   0  0  0  0  0  0  0  0  0  0  0  0
    4.5079   -3.6829    0.0000 C   0  0  2  0  0  0  0  0  0  0  0  0
    4.9204   -4.3974    0.0000 C   0  0  0  0  0  0  0  0  0  0  0  0
    3.6829   -3.6829    0.0000 C   0  0  0  0  0  0  0  0  0  0  0  0
    3.2704   -2.9684    0.0000 C   0  0  0  0  0  0  0  0  0  0  0  0
    2.4454   -2.9684    0.0000 C   0  0  0  0  0  0  0  0  0  0  0  0
    2.0329   -2.2539    0.0000 C   0  0  2  0  0  0  0  0  0  0  0  0
    1.2079   -2.2539    0.0000 N   0  0  0  0  0  0  0  0  0  0  0  0
    0.7954   -2.9684    0.0000 C   0  0  0  0  0  0  0  0  0  0  0  0
   -0.0296   -2.9684    0.0000 C   0  0  0  0  0  0  0  0  0  0  0  0
   -0.4421   -2.2539    0.0000 C   0  0  0  0  0  0  0  0  0  0  0  0
   -1.2671   -2.2539    0.0000 C   0  0  0  0  0  0  0  0  0  0  0  0
   -1.6796   -2.9684    0.0000 C   0  0  0  0  0  0  0  0  0  0  0  0
   -1.2671   -3.6829    0.0000 F   0  0  0  0  0  0  0  0  0  0  0  0
   -2.5046   -2.9684    0.0000 C   0  0  0  0  0  0  0  0  0  0  0  0
   -2.9171   -2.2539    0.0000 C   0  0  0  0  0  0  0  0  0  0  0  0
   -2.5046   -1.5395    0.0000 C   0  0  0  0  0  0  0  0  0  0  0  0
   -2.9171   -0.8250    0.0000 Cl  0  0  0  0  0  0  0  0  0  0  0  0
   -1.6796   -1.5395    0.0000 C   0  0  0  0  0  0  0  0  0  0  0  0
   -1.2671   -0.8250    0.0000 F   0  0  0  0  0  0  0  0  0  0  0  0
   -0.0296   -1.5395    0.0000 C   0  0  0  0  0  0  0  0  0  0  0  0
    0.7954   -1.5395    0.0000 C   0  0  0  0  0  0  0  0  0  0  0  0
    1.2079   -0.8250    0.0000 O   0  0  0  0  0  0  0  0  0  0  0  0
    2.4454   -1.5395    0.0000 C   0  0  0  0  0  0  0  0  0  0  0  0
    3.2704   -1.5395    0.0000 C   0  0  0  0  0  0  0  0  0  0  0  0
    3.6829   -0.8250    0.0000 C   0  0  0  0  0  0  0  0  0  0  0  0
    3.2704   -0.1105    0.0000 C   0  0  0  0  0  0  0  0  0  0  0  0
    2.4454   -0.1105    0.0000 C   0  0  0  0  0  0  0  0  0  0  0  0
    2.0329   -0.8250    0.0000 N   0  0  0  0  0  0  0  0  0  0  0  0
  1  2  1  0  0  0  0
  2  3  2  0  0  0  0
  2  4  1  0  0  0  0
  4  5  1  0  0  0  0
  5  6  4  0  0  0  0
  6  7  4  0  0  0  0
  7  8  4  0  0  0  0
  8  9  4  0  0  0  0
  9 10  4  0  0  0  0
  5 10  4  0  0  0  0
  9 11  1  0  0  0  0
 11 12  1  0  0  0  0
 12 13  2  0  0  0  0
 12 14  1  0  0  0  0
 14 15  1  6  0  0  0
 14 16  1  0  0  0  0
 16 17  1  0  0  0  0
 17 18  1  0  0  0  0
 18 19  1  0  0  0  0
 19 20  1  6  0  0  0
 20 21  1  0  0  0  0
 21 22  1  0  0  0  0
 22 23  1  0  0  0  0
 23 24  1  0  0  0  0
 24 25  4  0  0  0  0
 25 26  1  0  0  0  0
 25 27  4  0  0  0  0
 27 28  4  0  0  0  0
 28 29  4  0  0  0  0
 29 30  1  0  0  0  0
 29 31  4  0  0  0  0
 24 31  4  0  0  0  0
 31 32  1  0  0  0  0
 23 33  2  0  0  0  0
 33 34  1  0  0  0  0
 20 34  1  0  0  0  0
 34 35  2  0  0  0  0
 19 36  1  0  0  0  0
 36 37  4  0  0  0  0
 37 38  4  0  0  0  0
  8 38  1  0  0  0  0
 38 39  4  0  0  0  0
 39 40  4  0  0  0  0
 40 41  4  0  0  0  0
 36 41  4  0  0  0  0
M  END
>  <CdId>
358506

>  <Mol Weight>
579.037

>  <Formula>
C31H29ClF2N4O3

>  <cmpd_chemblid>
CHEMBL4109421

>  <std_type>
Ki

>  <std_value>
3.54

>  <std_unit>
nM

>  <target_id>
CHEMBL2016

>  <target_name>
Coagulation factor IX

>  <organism>
Homo sapiens

>  <target_type>
SINGLE PROTEIN

$$$$

  Mrv0541 08052111042D          

 48 54  0  0  0  0            999 V2000
   10.0646   -1.6944    0.0000 N   0  0  0  0  0  0  0  0  0  0  0  0
   10.0646   -0.8694    0.0000 C   0  0  0  0  0  0  0  0  0  0  0  0
   10.7791   -0.4569    0.0000 N   0  0  0  0  0  0  0  0  0  0  0  0
    9.3502   -0.4569    0.0000 C   0  0  0  0  0  0  0  0  0  0  0  0
    9.3502    0.3681    0.0000 C   0  0  0  0  0  0  0  0  0  0  0  0
    8.6357    0.7806    0.0000 C   0  0  0  0  0  0  0  0  0  0  0  0
    7.9212    0.3681    0.0000 C   0  0  0  0  0  0  0  0  0  0  0  0
    7.1366    0.6230    0.0000 N   0  0  0  0  0  0  0  0  0  0  0  0
    6.6517   -0.0444    0.0000 C   0  0  0  0  0  0  0  0  0  0  0  0
    7.1366   -0.7118    0.0000 C   0  0  0  0  0  0  0  0  0  0  0  0
    6.8817   -1.4965    0.0000 C   0  0  0  0  0  0  0  0  0  0  0  0
    6.0747   -1.6680    0.0000 C   0  0  0  0  0  0  0  0  0  0  0  0
    5.5226   -1.0549    0.0000 C   0  0  0  0  0  0  0  0  0  0  0  0
    4.7157   -1.2264    0.0000 C   0  0  0  0  0  0  0  0  0  0  0  0
    4.1636   -0.6133    0.0000 C   0  0  0  0  0  0  0  0  0  0  0  0
    4.4186    0.1713    0.0000 C   0  0  0  0  0  0  0  0  0  0  0  0
    3.8665    0.7844    0.0000 N   0  0  0  0  0  0  0  0  0  0  0  0
    4.1215    1.5690    0.0000 S   0  0  0  0  0  0  0  0  0  0  0  0
    3.3369    1.8240    0.0000 O   0  0  0  0  0  0  0  0  0  0  0  0
    4.9061    1.3141    0.0000 O   0  0  0  0  0  0  0  0  0  0  0  0
    4.3764    2.3536    0.0000 C   0  0  0  0  0  0  0  0  0  0  0  0
    3.8244    2.9667    0.0000 C   0  0  0  0  0  0  0  0  0  0  0  0
    4.0793    3.7514    0.0000 C   0  0  0  0  0  0  0  0  0  0  0  0
    4.8863    3.9229    0.0000 C   0  0  0  0  0  0  0  0  0  0  0  0
    5.4383    3.3098    0.0000 C   0  0  0  0  0  0  0  0  0  0  0  0
    5.1834    2.5252    0.0000 C   0  0  0  0  0  0  0  0  0  0  0  0
    5.2256    0.3428    0.0000 C   0  0  0  0  0  0  0  0  0  0  0  0
    5.7776   -0.2703    0.0000 C   0  0  0  0  0  0  0  0  0  0  0  0
    7.4337   -2.1096    0.0000 C   0  0  0  0  0  0  0  0  0  0  0  0
    7.1787   -2.8942    0.0000 O   0  0  0  0  0  0  0  0  0  0  0  0
    8.2407   -1.9380    0.0000 N   0  0  0  0  0  0  0  0  0  0  0  0
    8.7927   -2.5511    0.0000 C   0  0  0  0  0  0  0  0  0  0  0  0
    9.5997   -2.3796    0.0000 C   0  0  0  0  0  0  0  0  0  0  0  0
   10.1517   -2.9927    0.0000 C   0  0  0  0  0  0  0  0  0  0  0  0
    9.8968   -3.7773    0.0000 C   0  0  0  0  0  0  0  0  0  0  0  0
   10.4488   -4.3904    0.0000 N   0  0  0  0  0  0  0  0  0  0  0  0
   11.2693   -4.3042    0.0000 C   0  0  0  0  0  0  0  0  0  0  0  0
   11.6048   -5.0578    0.0000 N   0  0  0  0  0  0  0  0  0  0  0  0
   10.9917   -5.6099    0.0000 C   0  0  0  0  0  0  0  0  0  0  0  0
   10.9917   -6.4349    0.0000 C   0  0  0  0  0  0  0  0  0  0  0  0
   10.2773   -6.8474    0.0000 C   0  0  0  0  0  0  0  0  0  0  0  0
    9.5628   -6.4349    0.0000 C   0  0  0  0  0  0  0  0  0  0  0  0
    9.5628   -5.6099    0.0000 C   0  0  0  0  0  0  0  0  0  0  0  0
   10.2773   -5.1974    0.0000 C   0  0  0  0  0  0  0  0  0  0  0  0
    9.0898   -3.9488    0.0000 C   0  0  0  0  0  0  0  0  0  0  0  0
    8.5377   -3.3357    0.0000 C   0  0  0  0  0  0  0  0  0  0  0  0
    7.9212   -0.4569    0.0000 C   0  0  0  0  0  0  0  0  0  0  0  0
    8.6357   -0.8694    0.0000 C   0  0  0  0  0  0  0  0  0  0  0  0
  1  2  2  0  0  0  0
  2  3  1  0  0  0  0
  2  4  1  0  0  0  0
  4  5  4  0  0  0  0
  5  6  4  0  0  0  0
  6  7  4  0  0  0  0
  7  8  4  0  0  0  0
  8  9  4  0  0  0  0
  9 10  4  0  0  0  0
 10 11  1  0  0  0  0
 11 12  1  0  0  0  0
 12 13  1  0  0  0  0
 13 14  4  0  0  0  0
 14 15  4  0  0  0  0
 15 16  4  0  0  0  0
 16 17  1  0  0  0  0
 17 18  1  0  0  0  0
 18 19  2  0  0  0  0
 18 20  2  0  0  0  0
 18 21  1  0  0  0  0
 21 22  4  0  0  0  0
 22 23  4  0  0  0  0
 23 24  4  0  0  0  0
 24 25  4  0  0  0  0
 25 26  4  0  0  0  0
 21 26  4  0  0  0  0
 16 27  4  0  0  0  0
 27 28  4  0  0  0  0
 13 28  4  0  0  0  0
 11 29  1  0  0  0  0
 29 30  2  0  0  0  0
 29 31  1  0  0  0  0
 31 32  1  0  0  0  0
 32 33  4  0  0  0  0
 33 34  4  0  0  0  0
 34 35  4  0  0  0  0
 35 36  1  0  0  0  0
 36 37  4  0  0  0  0
 37 38  4  0  0  0  0
 38 39  4  0  0  0  0
 39 40  4  0  0  0  0
 40 41  4  0  0  0  0
 41 42  4  0  0  0  0
 42 43  4  0  0  0  0
 43 44  4  0  0  0  0
 39 44  4  0  0  0  0
 36 44  4  0  0  0  0
 35 45  4  0  0  0  0
 45 46  4  0  0  0  0
 32 46  4  0  0  0  0
 10 47  4  0  0  0  0
  7 47  4  0  0  0  0
 47 48  4  0  0  0  0
  4 48  4  0  0  0  0
M  STY  1   1 DAT
M  SAL   1  1   8
M  SDT   1 MRV_IMPLICIT_H                                        
M  SDD   1     0.0000    0.0000    DR    ALL  0       0  
M  SED   1 IMPL_H1
M  END
>  <CdId>
358507

>  <Mol Weight>
653.752

>  <Formula>
C37H31N7O3S

>  <cmpd_chemblid>
CHEMBL364771

>  <std_type>
Ki

>  <std_value>
130.0

>  <std_unit>
nM

>  <target_id>
CHEMBL2016

>  <target_name>
Coagulation factor IX

>  <organism>
Homo sapiens

>  <target_type>
SINGLE PROTEIN

$$$$

  Mrv0541 08052111042D          

 38 42  0  0  1  0            999 V2000
    3.9849    3.9849    0.0000 C   0  0  0  0  0  0  0  0  0  0  0  0
    4.3974    3.2704    0.0000 C   0  0  2  0  0  0  0  0  0  0  0  0
    5.2224    3.2704    0.0000 C   0  0  0  0  0  0  0  0  0  0  0  0
    5.6349    2.5559    0.0000 C   0  0  0  0  0  0  0  0  0  0  0  0
    6.4599    2.5559    0.0000 C   0  0  0  0  0  0  0  0  0  0  0  0
    6.8724    1.8414    0.0000 C   0  0  2  0  0  0  0  0  0  0  0  0
    7.6974    1.8414    0.0000 N   0  0  0  0  0  0  0  0  0  0  0  0
    8.1099    2.5559    0.0000 C   0  0  0  0  0  0  0  0  0  0  0  0
    8.9349    2.5559    0.0000 C   0  0  0  0  0  0  0  0  0  0  0  0
    9.3474    1.8414    0.0000 C   0  0  0  0  0  0  0  0  0  0  0  0
   10.1724    1.8414    0.0000 C   0  0  0  0  0  0  0  0  0  0  0  0
   10.5849    2.5559    0.0000 C   0  0  0  0  0  0  0  0  0  0  0  0
   10.1724    3.2704    0.0000 Br  0  0  0  0  0  0  0  0  0  0  0  0
   11.4099    2.5559    0.0000 C   0  0  0  0  0  0  0  0  0  0  0  0
   11.8224    1.8414    0.0000 C   0  0  0  0  0  0  0  0  0  0  0  0
   11.4099    1.1270    0.0000 C   0  0  0  0  0  0  0  0  0  0  0  0
   11.8224    0.4125    0.0000 Cl  0  0  0  0  0  0  0  0  0  0  0  0
   10.5849    1.1270    0.0000 C   0  0  0  0  0  0  0  0  0  0  0  0
   10.1724    0.4125    0.0000 F   0  0  0  0  0  0  0  0  0  0  0  0
    8.9349    1.1270    0.0000 C   0  0  0  0  0  0  0  0  0  0  0  0
    8.1099    1.1270    0.0000 C   0  0  0  0  0  0  0  0  0  0  0  0
    7.6974    0.4125    0.0000 O   0  0  0  0  0  0  0  0  0  0  0  0
    6.4599    1.1270    0.0000 C   0  0  0  0  0  0  0  0  0  0  0  0
    5.6349    1.1270    0.0000 C   0  0  0  0  0  0  0  0  0  0  0  0
    5.2224    0.4125    0.0000 C   0  0  0  0  0  0  0  0  0  0  0  0
    5.6349   -0.3020    0.0000 C   0  0  0  0  0  0  0  0  0  0  0  0
    6.4599   -0.3020    0.0000 C   0  0  0  0  0  0  0  0  0  0  0  0
    6.8724    0.4125    0.0000 N   0  0  0  0  0  0  0  0  0  0  0  0
    4.3974    0.4125    0.0000 C   0  0  0  0  0  0  0  0  0  0  0  0
    3.9849   -0.3020    0.0000 C   0  0  0  0  0  0  0  0  0  0  0  0
    3.1599   -0.3020    0.0000 C   0  0  0  0  0  0  0  0  0  0  0  0
    2.7474   -1.0164    0.0000 F   0  0  0  0  0  0  0  0  0  0  0  0
    2.7474    0.4125    0.0000 C   0  0  0  0  0  0  0  0  0  0  0  0
    3.1599    1.1270    0.0000 C   0  0  0  0  0  0  0  0  0  0  0  0
    3.9849    1.1270    0.0000 C   0  0  0  0  0  0  0  0  0  0  0  0
    4.3974    1.8414    0.0000 N   0  0  0  0  0  0  0  0  0  0  0  0
    3.9849    2.5559    0.0000 C   0  0  0  0  0  0  0  0  0  0  0  0
    3.1599    2.5559    0.0000 O   0  0  0  0  0  0  0  0  0  0  0  0
  2  1  1  6  0  0  0
  2  3  1  0  0  0  0
  3  4  1  0  0  0  0
  4  5  1  0  0  0  0
  5  6  1  0  0  0  0
  6  7  1  6  0  0  0
  7  8  1  0  0  0  0
  8  9  1  0  0  0  0
  9 10  1  0  0  0  0
 10 11  1  0  0  0  0
 11 12  4  0  0  0  0
 12 13  1  0  0  0  0
 12 14  4  0  0  0  0
 14 15  4  0  0  0  0
 15 16  4  0  0  0  0
 16 17  1  0  0  0  0
 16 18  4  0  0  0  0
 11 18  4  0  0  0  0
 18 19  1  0  0  0  0
 10 20  2  0  0  0  0
 20 21  1  0  0  0  0
  7 21  1  0  0  0  0
 21 22  2  0  0  0  0
  6 23  1  0  0  0  0
 23 24  4  0  0  0  0
 24 25  4  0  0  0  0
 25 26  4  0  0  0  0
 26 27  4  0  0  0  0
 27 28  4  0  0  0  0
 23 28  4  0  0  0  0
 25 29  1  0  0  0  0
 29 30  4  0  0  0  0
 30 31  4  0  0  0  0
 31 32  1  0  0  0  0
 31 33  4  0  0  0  0
 33 34  4  0  0  0  0
 34 35  4  0  0  0  0
 29 35  4  0  0  0  0
 35 36  1  0  0  0  0
 36 37  1  0  0  0  0
  2 37  1  0  0  0  0
 37 38  2  0  0  0  0
M  END
>  <CdId>
358508

>  <Mol Weight>
600.882

>  <Formula>
C29H25BrClF2N3O2

>  <cmpd_chemblid>
CHEMBL4111674

>  <std_type>
Ki

>  <std_value>
3.59

>  <std_unit>
nM

>  <target_id>
CHEMBL2016

>  <target_name>
Coagulation factor IX

>  <organism>
Homo sapiens

>  <target_type>
SINGLE PROTEIN

$$$$

  Mrv0541 08052111042D          

 44 49  0  0  1  0            999 V2000
   -0.7145   -0.4125    0.0000 C   0  0  0  0  0  0  0  0  0  0  0  0
    0.0000    0.0000    0.0000 O   0  0  0  0  0  0  0  0  0  0  0  0
    0.7145   -0.4125    0.0000 C   0  0  0  0  0  0  0  0  0  0  0  0
    1.4289    0.0000    0.0000 C   0  0  0  0  0  0  0  0  0  0  0  0
    2.1434   -0.4125    0.0000 C   0  0  0  0  0  0  0  0  0  0  0  0
    2.8579    0.0000    0.0000 C   0  0  0  0  0  0  0  0  0  0  0  0
    2.8579    0.8250    0.0000 N   0  0  0  0  0  0  0  0  0  0  0  0
    3.5724   -0.4125    0.0000 N   0  0  0  0  0  0  0  0  0  0  0  0
    3.5724   -1.2375    0.0000 C   0  0  0  0  0  0  0  0  0  0  0  0
    2.8579   -1.6500    0.0000 C   0  0  0  0  0  0  0  0  0  0  0  0
    2.1434   -1.2375    0.0000 C   0  0  0  0  0  0  0  0  0  0  0  0
    1.4289   -1.6500    0.0000 C   0  0  0  0  0  0  0  0  0  0  0  0
    0.7145   -1.2375    0.0000 C   0  0  0  0  0  0  0  0  0  0  0  0
    0.0000   -1.6500    0.0000 C   0  0  0  0  0  0  0  0  0  0  0  0
    0.0000   -2.4750    0.0000 C   0  0  2  0  0  0  0  0  0  0  0  0
   -0.7145   -2.8875    0.0000 C   0  0  0  0  0  0  0  0  0  0  0  0
   -0.7145   -3.7125    0.0000 O   0  0  0  0  0  0  0  0  0  0  0  0
   -1.4289   -2.4750    0.0000 O   0  0  0  0  0  0  0  0  0  0  0  0
   -2.1434   -2.8875    0.0000 C   0  0  0  0  0  0  0  0  0  0  0  0
   -2.8579   -2.4750    0.0000 C   0  0  0  0  0  0  0  0  0  0  0  0
   -3.6829   -2.4750    0.0000 C   0  0  0  0  0  0  0  0  0  0  0  0
   -3.2704   -1.7605    0.0000 C   0  0  0  0  0  0  0  0  0  0  0  0
    0.7145   -2.8875    0.0000 N   0  0  0  0  0  0  0  0  0  0  0  0
    1.4681   -2.5519    0.0000 C   0  0  0  0  0  0  0  0  0  0  0  0
    2.0202   -3.1650    0.0000 C   0  0  0  0  0  0  0  0  0  0  0  0
    1.6077   -3.8795    0.0000 C   0  0  2  0  0  0  0  0  0  0  0  0
    1.9432   -4.6332    0.0000 N   0  0  0  0  0  0  0  0  0  0  0  0
    2.7637   -4.7194    0.0000 S   0  0  0  0  0  0  0  0  0  0  0  0
    2.6775   -5.5399    0.0000 O   0  0  0  0  0  0  0  0  0  0  0  0
    2.8500   -3.8989    0.0000 O   0  0  0  0  0  0  0  0  0  0  0  0
    3.5842   -4.8057    0.0000 C   0  0  0  0  0  0  0  0  0  0  0  0
    4.1362   -4.1926    0.0000 C   0  0  0  0  0  0  0  0  0  0  0  0
    4.8899   -4.5281    0.0000 N   0  0  0  0  0  0  0  0  0  0  0  0
    4.8037   -5.3486    0.0000 C   0  0  0  0  0  0  0  0  0  0  0  0
    5.4168   -5.9006    0.0000 N   0  0  0  0  0  0  0  0  0  0  0  0
    6.2237   -5.7291    0.0000 C   0  0  0  0  0  0  0  0  0  0  0  0
    6.6362   -6.4436    0.0000 C   0  0  0  0  0  0  0  0  0  0  0  0
    6.0842   -7.0567    0.0000 C   0  0  0  0  0  0  0  0  0  0  0  0
    6.7516   -7.5416    0.0000 F   0  0  0  0  0  0  0  0  0  0  0  0
    5.6717   -7.7711    0.0000 F   0  0  0  0  0  0  0  0  0  0  0  0
    5.3305   -6.7211    0.0000 C   0  0  0  0  0  0  0  0  0  0  0  0
    3.9967   -5.5201    0.0000 S   0  0  0  0  0  0  0  0  0  0  0  0
    0.8007   -3.7080    0.0000 C   0  0  0  0  0  0  0  0  0  0  0  0
    0.1876   -4.2600    0.0000 O   0  0  0  0  0  0  0  0  0  0  0  0
  1  2  1  0  0  0  0
  2  3  1  0  0  0  0
  3  4  4  0  0  0  0
  4  5  4  0  0  0  0
  5  6  4  0  0  0  0
  6  7  1  0  0  0  0
  6  8  4  0  0  0  0
  8  9  4  0  0  0  0
  9 10  4  0  0  0  0
 10 11  4  0  0  0  0
  5 11  4  0  0  0  0
 11 12  4  0  0  0  0
 12 13  4  0  0  0  0
  3 13  4  0  0  0  0
 13 14  1  0  0  0  0
 14 15  1  0  0  0  0
 15 16  1  0  0  0  0
 16 17  2  0  0  0  0
 16 18  1  0  0  0  0
 18 19  1  0  0  0  0
 19 20  1  0  0  0  0
 20 21  1  0  0  0  0
 21 22  1  0  0  0  0
 20 22  1  0  0  0  0
 15 23  1  1  0  0  0
 23 24  1  0  0  0  0
 24 25  1  0  0  0  0
 25 26  1  0  0  0  0
 26 27  1  6  0  0  0
 27 28  1  0  0  0  0
 28 29  2  0  0  0  0
 28 30  2  0  0  0  0
 28 31  1  0  0  0  0
 31 32  4  0  0  0  0
 32 33  4  0  0  0  0
 33 34  4  0  0  0  0
 34 35  1  0  0  0  0
 35 36  1  0  0  0  0
 36 37  1  0  0  0  0
 37 38  1  0  0  0  0
 38 39  1  0  0  0  0
 38 40  1  0  0  0  0
 38 41  1  0  0  0  0
 35 41  1  0  0  0  0
 34 42  4  0  0  0  0
 31 42  4  0  0  0  0
 26 43  1  0  0  0  0
 23 43  1  0  0  0  0
 43 44  2  0  0  0  0
M  END
>  <CdId>
358510

>  <Mol Weight>
650.717

>  <Formula>
C28H32F2N6O6S2

>  <cmpd_chemblid>
CHEMBL3940564

>  <std_type>
Ki

>  <std_value>
550.0

>  <std_unit>
nM

>  <target_id>
CHEMBL2016

>  <target_name>
Coagulation factor IX

>  <organism>
Homo sapiens

>  <target_type>
SINGLE PROTEIN

$$$$

  Mrv0541 08052111042D          

 38 42  0  0  1  0            999 V2000
    3.9849    3.9849    0.0000 C   0  0  0  0  0  0  0  0  0  0  0  0
    4.3974    3.2704    0.0000 C   0  0  2  0  0  0  0  0  0  0  0  0
    5.2224    3.2704    0.0000 C   0  0  0  0  0  0  0  0  0  0  0  0
    5.6349    2.5559    0.0000 C   0  0  0  0  0  0  0  0  0  0  0  0
    6.4599    2.5559    0.0000 C   0  0  0  0  0  0  0  0  0  0  0  0
    6.8724    1.8414    0.0000 C   0  0  2  0  0  0  0  0  0  0  0  0
    7.6974    1.8414    0.0000 N   0  0  0  0  0  0  0  0  0  0  0  0
    8.1099    2.5559    0.0000 C   0  0  0  0  0  0  0  0  0  0  0  0
    8.9349    2.5559    0.0000 C   0  0  0  0  0  0  0  0  0  0  0  0
    9.3474    1.8414    0.0000 C   0  0  0  0  0  0  0  0  0  0  0  0
   10.1724    1.8414    0.0000 C   0  0  0  0  0  0  0  0  0  0  0  0
   10.5849    2.5559    0.0000 C   0  0  0  0  0  0  0  0  0  0  0  0
   10.1724    3.2704    0.0000 C   0  0  0  0  0  0  0  0  0  0  0  0
    9.7599    3.9849    0.0000 N   0  0  0  0  0  0  0  0  0  0  0  0
   11.4099    2.5559    0.0000 C   0  0  0  0  0  0  0  0  0  0  0  0
   11.8224    1.8414    0.0000 C   0  0  0  0  0  0  0  0  0  0  0  0
   11.4099    1.1270    0.0000 C   0  0  0  0  0  0  0  0  0  0  0  0
   11.8224    0.4125    0.0000 Cl  0  0  0  0  0  0  0  0  0  0  0  0
   10.5849    1.1270    0.0000 C   0  0  0  0  0  0  0  0  0  0  0  0
   10.1724    0.4125    0.0000 F   0  0  0  0  0  0  0  0  0  0  0  0
    8.9349    1.1270    0.0000 C   0  0  0  0  0  0  0  0  0  0  0  0
    8.1099    1.1270    0.0000 C   0  0  0  0  0  0  0  0  0  0  0  0
    7.6974    0.4125    0.0000 O   0  0  0  0  0  0  0  0  0  0  0  0
    6.4599    1.1270    0.0000 C   0  0  0  0  0  0  0  0  0  0  0  0
    5.6349    1.1270    0.0000 C   0  0  0  0  0  0  0  0  0  0  0  0
    5.2224    0.4125    0.0000 C   0  0  0  0  0  0  0  0  0  0  0  0
    5.6349   -0.3020    0.0000 C   0  0  0  0  0  0  0  0  0  0  0  0
    6.4599   -0.3020    0.0000 C   0  0  0  0  0  0  0  0  0  0  0  0
    6.8724    0.4125    0.0000 N   0  0  0  0  0  0  0  0  0  0  0  0
    4.3974    0.4125    0.0000 C   0  0  0  0  0  0  0  0  0  0  0  0
    3.9849   -0.3020    0.0000 C   0  0  0  0  0  0  0  0  0  0  0  0
    3.1599   -0.3020    0.0000 C   0  0  0  0  0  0  0  0  0  0  0  0
    2.7474    0.4125    0.0000 C   0  0  0  0  0  0  0  0  0  0  0  0
    3.1599    1.1270    0.0000 C   0  0  0  0  0  0  0  0  0  0  0  0
    3.9849    1.1270    0.0000 C   0  0  0  0  0  0  0  0  0  0  0  0
    4.3974    1.8414    0.0000 N   0  0  0  0  0  0  0  0  0  0  0  0
    3.9849    2.5559    0.0000 C   0  0  0  0  0  0  0  0  0  0  0  0
    3.1599    2.5559    0.0000 O   0  0  0  0  0  0  0  0  0  0  0  0
  2  1  1  6  0  0  0
  2  3  1  0  0  0  0
  3  4  1  0  0  0  0
  4  5  1  0  0  0  0
  5  6  1  0  0  0  0
  6  7  1  6  0  0  0
  7  8  1  0  0  0  0
  8  9  1  0  0  0  0
  9 10  1  0  0  0  0
 10 11  1  0  0  0  0
 11 12  4  0  0  0  0
 12 13  1  0  0  0  0
 13 14  3  0  0  0  0
 12 15  4  0  0  0  0
 15 16  4  0  0  0  0
 16 17  4  0  0  0  0
 17 18  1  0  0  0  0
 17 19  4  0  0  0  0
 11 19  4  0  0  0  0
 19 20  1  0  0  0  0
 10 21  2  0  0  0  0
 21 22  1  0  0  0  0
  7 22  1  0  0  0  0
 22 23  2  0  0  0  0
  6 24  1  0  0  0  0
 24 25  4  0  0  0  0
 25 26  4  0  0  0  0
 26 27  4  0  0  0  0
 27 28  4  0  0  0  0
 28 29  4  0  0  0  0
 24 29  4  0  0  0  0
 26 30  1  0  0  0  0
 30 31  4  0  0  0  0
 31 32  4  0  0  0  0
 32 33  4  0  0  0  0
 33 34  4  0  0  0  0
 34 35  4  0  0  0  0
 30 35  4  0  0  0  0
 35 36  1  0  0  0  0
 36 37  1  0  0  0  0
  2 37  1  0  0  0  0
 37 38  2  0  0  0  0
M  END
>  <CdId>
358512

>  <Mol Weight>
529.004

>  <Formula>
C30H26ClFN4O2

>  <cmpd_chemblid>
CHEMBL4108491

>  <std_type>
Ki

>  <std_value>
1.06

>  <std_unit>
nM

>  <target_id>
CHEMBL2016

>  <target_name>
Coagulation factor IX

>  <organism>
Homo sapiens

>  <target_type>
SINGLE PROTEIN

$$$$

  Mrv0541 08052111042D          

 39 43  0  0  1  0            999 V2000
    0.0000    0.8250    0.0000 C   0  0  0  0  0  0  0  0  0  0  0  0
    0.0000    0.0000    0.0000 O   0  0  0  0  0  0  0  0  0  0  0  0
    0.7145   -0.4125    0.0000 C   0  0  0  0  0  0  0  0  0  0  0  0
    1.4289    0.0000    0.0000 C   0  0  0  0  0  0  0  0  0  0  0  0
    2.1434   -0.4125    0.0000 C   0  0  0  0  0  0  0  0  0  0  0  0
    2.8579    0.0000    0.0000 C   0  0  0  0  0  0  0  0  0  0  0  0
    2.8579    0.8250    0.0000 N   0  0  0  0  0  0  0  0  0  0  0  0
    3.5724   -0.4125    0.0000 N   0  0  0  0  0  0  0  0  0  0  0  0
    3.5724   -1.2375    0.0000 C   0  0  0  0  0  0  0  0  0  0  0  0
    2.8579   -1.6500    0.0000 C   0  0  0  0  0  0  0  0  0  0  0  0
    2.1434   -1.2375    0.0000 C   0  0  0  0  0  0  0  0  0  0  0  0
    1.4289   -1.6500    0.0000 C   0  0  0  0  0  0  0  0  0  0  0  0
    0.7145   -1.2375    0.0000 C   0  0  0  0  0  0  0  0  0  0  0  0
    0.0000   -1.6500    0.0000 C   0  0  0  0  0  0  0  0  0  0  0  0
    0.0000   -2.4750    0.0000 C   0  0  2  0  0  0  0  0  0  0  0  0
   -0.7145   -2.8875    0.0000 C   0  0  0  0  0  0  0  0  0  0  0  0
   -0.7145   -3.7125    0.0000 O   0  0  0  0  0  0  0  0  0  0  0  0
   -1.4289   -2.4750    0.0000 O   0  0  0  0  0  0  0  0  0  0  0  0
    0.7145   -2.8875    0.0000 N   0  0  0  0  0  0  0  0  0  0  0  0
    1.4681   -2.5519    0.0000 C   0  0  0  0  0  0  0  0  0  0  0  0
    2.0202   -3.1650    0.0000 C   0  0  0  0  0  0  0  0  0  0  0  0
    1.6077   -3.8795    0.0000 C   0  0  2  0  0  0  0  0  0  0  0  0
    1.9432   -4.6332    0.0000 N   0  0  0  0  0  0  0  0  0  0  0  0
    2.7637   -4.7194    0.0000 S   0  0  0  0  0  0  0  0  0  0  0  0
    2.6775   -5.5399    0.0000 O   0  0  0  0  0  0  0  0  0  0  0  0
    2.8500   -3.8989    0.0000 O   0  0  0  0  0  0  0  0  0  0  0  0
    3.5842   -4.8057    0.0000 C   0  0  0  0  0  0  0  0  0  0  0  0
    4.1362   -4.1926    0.0000 C   0  0  0  0  0  0  0  0  0  0  0  0
    4.8899   -4.5281    0.0000 N   0  0  0  0  0  0  0  0  0  0  0  0
    4.8037   -5.3486    0.0000 C   0  0  0  0  0  0  0  0  0  0  0  0
    5.4168   -5.9006    0.0000 N   0  0  0  0  0  0  0  0  0  0  0  0
    6.2237   -5.7291    0.0000 C   0  0  0  0  0  0  0  0  0  0  0  0
    6.6362   -6.4436    0.0000 C   0  0  0  0  0  0  0  0  0  0  0  0
    6.0842   -7.0567    0.0000 C   0  0  1  0  0  0  0  0  0  0  0  0
    6.2557   -7.8636    0.0000 F   0  0  0  0  0  0  0  0  0  0  0  0
    5.3305   -6.7211    0.0000 C   0  0  0  0  0  0  0  0  0  0  0  0
    3.9967   -5.5201    0.0000 S   0  0  0  0  0  0  0  0  0  0  0  0
    0.8007   -3.7080    0.0000 C   0  0  0  0  0  0  0  0  0  0  0  0
    0.1876   -4.2600    0.0000 O   0  0  0  0  0  0  0  0  0  0  0  0
  1  2  1  0  0  0  0
  2  3  1  0  0  0  0
  3  4  4  0  0  0  0
  4  5  4  0  0  0  0
  5  6  4  0  0  0  0
  6  7  1  0  0  0  0
  6  8  4  0  0  0  0
  8  9  4  0  0  0  0
  9 10  4  0  0  0  0
 10 11  4  0  0  0  0
  5 11  4  0  0  0  0
 11 12  4  0  0  0  0
 12 13  4  0  0  0  0
  3 13  4  0  0  0  0
 13 14  1  0  0  0  0
 14 15  1  0  0  0  0
 15 16  1  0  0  0  0
 16 17  2  0  0  0  0
 16 18  1  0  0  0  0
 15 19  1  1  0  0  0
 19 20  1  0  0  0  0
 20 21  1  0  0  0  0
 21 22  1  0  0  0  0
 22 23  1  6  0  0  0
 23 24  1  0  0  0  0
 24 25  2  0  0  0  0
 24 26  2  0  0  0  0
 24 27  1  0  0  0  0
 27 28  4  0  0  0  0
 28 29  4  0  0  0  0
 29 30  4  0  0  0  0
 30 31  1  0  0  0  0
 31 32  1  0  0  0  0
 32 33  1  0  0  0  0
 33 34  1  0  0  0  0
 34 35  1  1  0  0  0
 34 36  1  0  0  0  0
 31 36  1  0  0  0  0
 30 37  4  0  0  0  0
 27 37  4  0  0  0  0
 22 38  1  0  0  0  0
 19 38  1  0  0  0  0
 38 39  2  0  0  0  0
M  END
>  <CdId>
358513

>  <Mol Weight>
578.636

>  <Formula>
C24H27FN6O6S2

>  <cmpd_chemblid>
CHEMBL4112015

>  <std_type>
Ki

>  <std_value>
70.0

>  <std_unit>
nM

>  <target_id>
CHEMBL2016

>  <target_name>
Coagulation factor IX

>  <organism>
Homo sapiens

>  <target_type>
SINGLE PROTEIN

$$$$

  Mrv0541 08052111042D          

 39 43  0  0  1  0            999 V2000
    3.9849    3.9849    0.0000 C   0  0  0  0  0  0  0  0  0  0  0  0
    4.3974    3.2704    0.0000 C   0  0  2  0  0  0  0  0  0  0  0  0
    5.2224    3.2704    0.0000 C   0  0  0  0  0  0  0  0  0  0  0  0
    5.6349    2.5559    0.0000 C   0  0  0  0  0  0  0  0  0  0  0  0
    6.4599    2.5559    0.0000 C   0  0  0  0  0  0  0  0  0  0  0  0
    6.8724    1.8414    0.0000 C   0  0  2  0  0  0  0  0  0  0  0  0
    7.6974    1.8414    0.0000 N   0  0  0  0  0  0  0  0  0  0  0  0
    8.1099    1.1270    0.0000 C   0  0  0  0  0  0  0  0  0  0  0  0
    8.9349    1.1270    0.0000 C   0  0  0  0  0  0  0  0  0  0  0  0
    9.3474    1.8414    0.0000 C   0  0  0  0  0  0  0  0  0  0  0  0
   10.1724    1.8414    0.0000 C   0  0  0  0  0  0  0  0  0  0  0  0
   10.5849    2.5559    0.0000 C   0  0  0  0  0  0  0  0  0  0  0  0
   10.1724    3.2704    0.0000 F   0  0  0  0  0  0  0  0  0  0  0  0
   11.4099    2.5559    0.0000 C   0  0  0  0  0  0  0  0  0  0  0  0
   11.8224    1.8414    0.0000 C   0  0  0  0  0  0  0  0  0  0  0  0
   11.4099    1.1270    0.0000 C   0  0  0  0  0  0  0  0  0  0  0  0
   11.8224    0.4125    0.0000 Cl  0  0  0  0  0  0  0  0  0  0  0  0
   10.5849    1.1270    0.0000 C   0  0  0  0  0  0  0  0  0  0  0  0
   10.1724    0.4125    0.0000 F   0  0  0  0  0  0  0  0  0  0  0  0
    8.9349    2.5559    0.0000 C   0  0  0  0  0  0  0  0  0  0  0  0
    8.1099    2.5559    0.0000 C   0  0  0  0  0  0  0  0  0  0  0  0
    7.6974    3.2704    0.0000 O   0  0  0  0  0  0  0  0  0  0  0  0
    6.4599    1.1270    0.0000 C   0  0  0  0  0  0  0  0  0  0  0  0
    5.6349    1.1270    0.0000 C   0  0  0  0  0  0  0  0  0  0  0  0
    5.2224    0.4125    0.0000 C   0  0  0  0  0  0  0  0  0  0  0  0
    5.6349   -0.3020    0.0000 C   0  0  0  0  0  0  0  0  0  0  0  0
    6.4599   -0.3020    0.0000 C   0  0  0  0  0  0  0  0  0  0  0  0
    6.8724    0.4125    0.0000 N   0  3  0  0  0  0  0  0  0  0  0  0
    7.6974    0.4125    0.0000 O   0  5  0  0  0  0  0  0  0  0  0  0
    4.3974    0.4125    0.0000 C   0  0  0  0  0  0  0  0  0  0  0  0
    3.9849   -0.3020    0.0000 C   0  0  0  0  0  0  0  0  0  0  0  0
    3.1599   -0.3020    0.0000 C   0  0  0  0  0  0  0  0  0  0  0  0
    2.7474    0.4125    0.0000 C   0  0  0  0  0  0  0  0  0  0  0  0
    1.9224    0.4125    0.0000 N   0  0  0  0  0  0  0  0  0  0  0  0
    3.1599    1.1270    0.0000 C   0  0  0  0  0  0  0  0  0  0  0  0
    3.9849    1.1270    0.0000 C   0  0  0  0  0  0  0  0  0  0  0  0
    4.3974    1.8414    0.0000 N   0  0  0  0  0  0  0  0  0  0  0  0
    3.9849    2.5559    0.0000 C   0  0  0  0  0  0  0  0  0  0  0  0
    3.1599    2.5559    0.0000 O   0  0  0  0  0  0  0  0  0  0  0  0
  2  1  1  6  0  0  0
  2  3  1  0  0  0  0
  3  4  1  0  0  0  0
  4  5  1  0  0  0  0
  5  6  1  0  0  0  0
  6  7  1  6  0  0  0
  7  8  1  0  0  0  0
  8  9  1  0  0  0  0
  9 10  1  0  0  0  0
 10 11  1  0  0  0  0
 11 12  4  0  0  0  0
 12 13  1  0  0  0  0
 12 14  4  0  0  0  0
 14 15  4  0  0  0  0
 15 16  4  0  0  0  0
 16 17  1  0  0  0  0
 16 18  4  0  0  0  0
 11 18  4  0  0  0  0
 18 19  1  0  0  0  0
 10 20  2  0  0  0  0
 20 21  1  0  0  0  0
  7 21  1  0  0  0  0
 21 22  2  0  0  0  0
  6 23  1  0  0  0  0
 23 24  4  0  0  0  0
 24 25  4  0  0  0  0
 25 26  4  0  0  0  0
 26 27  4  0  0  0  0
 27 28  4  0  0  0  0
 23 28  4  0  0  0  0
 28 29  1  0  0  0  0
 25 30  1  0  0  0  0
 30 31  4  0  0  0  0
 31 32  4  0  0  0  0
 32 33  4  0  0  0  0
 33 34  1  0  0  0  0
 33 35  4  0  0  0  0
 35 36  4  0  0  0  0
 30 36  4  0  0  0  0
 36 37  1  0  0  0  0
 37 38  1  0  0  0  0
  2 38  1  0  0  0  0
 38 39  2  0  0  0  0
M  CHG  2  28   1  29  -1
M  END
>  <CdId>
358514

>  <Mol Weight>
552.999

>  <Formula>
C29H27ClF2N4O3

>  <cmpd_chemblid>
CHEMBL4107516

>  <std_type>
Ki

>  <std_value>
8.02

>  <std_unit>
nM

>  <target_id>
CHEMBL2016

>  <target_name>
Coagulation factor IX

>  <organism>
Homo sapiens

>  <target_type>
SINGLE PROTEIN

$$$$

  Mrv0541 08052111042D          

 42 47  0  0  1  0            999 V2000
    3.9849    3.9849    0.0000 C   0  0  0  0  0  0  0  0  0  0  0  0
    4.3974    3.2704    0.0000 C   0  0  0  0  0  0  0  0  0  0  0  0
    5.2224    3.2704    0.0000 C   0  0  0  0  0  0  0  0  0  0  0  0
    5.6349    2.5559    0.0000 C   0  0  0  0  0  0  0  0  0  0  0  0
    6.4599    2.5559    0.0000 C   0  0  0  0  0  0  0  0  0  0  0  0
    6.8724    1.8414    0.0000 C   0  0  2  0  0  0  0  0  0  0  0  0
    7.6974    1.8414    0.0000 N   0  0  0  0  0  0  0  0  0  0  0  0
    8.1099    2.5559    0.0000 C   0  0  0  0  0  0  0  0  0  0  0  0
    8.9349    2.5559    0.0000 C   0  0  0  0  0  0  0  0  0  0  0  0
    9.3474    1.8414    0.0000 C   0  0  0  0  0  0  0  0  0  0  0  0
   10.1724    1.8414    0.0000 C   0  0  0  0  0  0  0  0  0  0  0  0
   10.5849    2.5559    0.0000 C   0  0  0  0  0  0  0  0  0  0  0  0
   10.1724    3.2704    0.0000 Br  0  0  0  0  0  0  0  0  0  0  0  0
   11.4099    2.5559    0.0000 C   0  0  0  0  0  0  0  0  0  0  0  0
   11.8224    1.8414    0.0000 C   0  0  0  0  0  0  0  0  0  0  0  0
   11.4099    1.1270    0.0000 C   0  0  0  0  0  0  0  0  0  0  0  0
   11.8224    0.4125    0.0000 Cl  0  0  0  0  0  0  0  0  0  0  0  0
   10.5849    1.1270    0.0000 C   0  0  0  0  0  0  0  0  0  0  0  0
   10.1724    0.4125    0.0000 F   0  0  0  0  0  0  0  0  0  0  0  0
    8.9349    1.1270    0.0000 C   0  0  0  0  0  0  0  0  0  0  0  0
    8.1099    1.1270    0.0000 C   0  0  0  0  0  0  0  0  0  0  0  0
    7.6974    0.4125    0.0000 O   0  0  0  0  0  0  0  0  0  0  0  0
    6.4599    1.1270    0.0000 C   0  0  0  0  0  0  0  0  0  0  0  0
    5.6349    1.1270    0.0000 C   0  0  0  0  0  0  0  0  0  0  0  0
    5.2224    0.4125    0.0000 C   0  0  0  0  0  0  0  0  0  0  0  0
    5.6349   -0.3020    0.0000 C   0  0  0  0  0  0  0  0  0  0  0  0
    6.4599   -0.3020    0.0000 C   0  0  0  0  0  0  0  0  0  0  0  0
    6.8724    0.4125    0.0000 N   0  0  0  0  0  0  0  0  0  0  0  0
    4.3974    0.4125    0.0000 C   0  0  0  0  0  0  0  0  0  0  0  0
    3.9849   -0.3020    0.0000 C   0  0  0  0  0  0  0  0  0  0  0  0
    3.1599   -0.3020    0.0000 C   0  0  0  0  0  0  0  0  0  0  0  0
    2.7474    0.4125    0.0000 C   0  0  0  0  0  0  0  0  0  0  0  0
    1.9224    0.4125    0.0000 C   0  0  0  0  0  0  0  0  0  0  0  0
    1.4374   -0.2549    0.0000 N   0  0  0  0  0  0  0  0  0  0  0  0
    0.6528   -0.0000    0.0000 N   0  0  0  0  0  0  0  0  0  0  0  0
    0.6528    0.8250    0.0000 C   0  0  0  0  0  0  0  0  0  0  0  0
    1.4374    1.0799    0.0000 N   0  0  0  0  0  0  0  0  0  0  0  0
    3.1599    1.1270    0.0000 C   0  0  0  0  0  0  0  0  0  0  0  0
    3.9849    1.1270    0.0000 C   0  0  0  0  0  0  0  0  0  0  0  0
    4.3974    1.8414    0.0000 N   0  0  0  0  0  0  0  0  0  0  0  0
    3.9849    2.5559    0.0000 C   0  0  0  0  0  0  0  0  0  0  0  0
    3.1599    2.5559    0.0000 O   0  0  0  0  0  0  0  0  0  0  0  0
  1  2  1  0  0  0  0
  2  3  1  0  0  0  0
  3  4  1  0  0  0  0
  4  5  1  0  0  0  0
  5  6  1  0  0  0  0
  6  7  1  6  0  0  0
  7  8  1  0  0  0  0
  8  9  1  0  0  0  0
  9 10  1  0  0  0  0
 10 11  1  0  0  0  0
 11 12  4  0  0  0  0
 12 13  1  0  0  0  0
 12 14  4  0  0  0  0
 14 15  4  0  0  0  0
 15 16  4  0  0  0  0
 16 17  1  0  0  0  0
 16 18  4  0  0  0  0
 11 18  4  0  0  0  0
 18 19  1  0  0  0  0
 10 20  2  0  0  0  0
 20 21  1  0  0  0  0
  7 21  1  0  0  0  0
 21 22  2  0  0  0  0
  6 23  1  0  0  0  0
 23 24  4  0  0  0  0
 24 25  4  0  0  0  0
 25 26  4  0  0  0  0
 26 27  4  0  0  0  0
 27 28  4  0  0  0  0
 23 28  4  0  0  0  0
 25 29  1  0  0  0  0
 29 30  4  0  0  0  0
 30 31  4  0  0  0  0
 31 32  4  0  0  0  0
 32 33  1  0  0  0  0
 33 34  4  0  0  0  0
 34 35  4  0  0  0  0
 35 36  4  0  0  0  0
 36 37  4  0  0  0  0
 33 37  4  0  0  0  0
 32 38  4  0  0  0  0
 38 39  4  0  0  0  0
 29 39  4  0  0  0  0
 39 40  1  0  0  0  0
 40 41  1  0  0  0  0
  2 41  1  0  0  0  0
 41 42  2  0  0  0  0
M  STY  1   1 DAT
M  SAL   1  1  37
M  SDT   1 MRV_IMPLICIT_H                                        
M  SDD   1     0.0000    0.0000    DR    ALL  0       0  
M  SED   1 IMPL_H1
M  END
>  <CdId>
358515

>  <Mol Weight>
649.94

>  <Formula>
C31H27BrClFN6O2

>  <cmpd_chemblid>
CHEMBL3940340

>  <std_type>
Ki

>  <std_value>
2.77

>  <std_unit>
nM

>  <target_id>
CHEMBL2016

>  <target_name>
Coagulation factor IX

>  <organism>
Homo sapiens

>  <target_type>
SINGLE PROTEIN

$$$$

  Mrv0541 08052111042D          

 50 55  0  0  1  0            999 V2000
    3.9849    3.9849    0.0000 C   0  0  0  0  0  0  0  0  0  0  0  0
    4.3974    3.2704    0.0000 C   0  0  2  0  0  0  0  0  0  0  0  0
    5.2224    3.2704    0.0000 C   0  0  0  0  0  0  0  0  0  0  0  0
    5.6349    2.5559    0.0000 C   0  0  0  0  0  0  0  0  0  0  0  0
    6.4599    2.5559    0.0000 C   0  0  0  0  0  0  0  0  0  0  0  0
    6.8724    1.8414    0.0000 C   0  0  2  0  0  0  0  0  0  0  0  0
    7.6974    1.8414    0.0000 N   0  0  0  0  0  0  0  0  0  0  0  0
    8.1099    2.5559    0.0000 C   0  0  0  0  0  0  0  0  0  0  0  0
    8.9349    2.5559    0.0000 C   0  0  0  0  0  0  0  0  0  0  0  0
    9.3474    1.8414    0.0000 C   0  0  0  0  0  0  0  0  0  0  0  0
   10.1724    1.8414    0.0000 C   0  0  0  0  0  0  0  0  0  0  0  0
   10.5849    2.5559    0.0000 C   0  0  0  0  0  0  0  0  0  0  0  0
   10.1724    3.2704    0.0000 F   0  0  0  0  0  0  0  0  0  0  0  0
   11.4099    2.5559    0.0000 C   0  0  0  0  0  0  0  0  0  0  0  0
   11.8224    1.8414    0.0000 C   0  0  0  0  0  0  0  0  0  0  0  0
   11.4099    1.1270    0.0000 C   0  0  0  0  0  0  0  0  0  0  0  0
   11.8224    0.4125    0.0000 Cl  0  0  0  0  0  0  0  0  0  0  0  0
   10.5849    1.1270    0.0000 C   0  0  0  0  0  0  0  0  0  0  0  0
   10.1724    0.4125    0.0000 F   0  0  0  0  0  0  0  0  0  0  0  0
    8.9349    1.1270    0.0000 C   0  0  0  0  0  0  0  0  0  0  0  0
    8.1099    1.1270    0.0000 C   0  0  0  0  0  0  0  0  0  0  0  0
    7.6974    0.4125    0.0000 O   0  0  0  0  0  0  0  0  0  0  0  0
    6.4599    1.1270    0.0000 C   0  0  0  0  0  0  0  0  0  0  0  0
    5.6349    1.1270    0.0000 C   0  0  0  0  0  0  0  0  0  0  0  0
    5.2224    0.4125    0.0000 C   0  0  0  0  0  0  0  0  0  0  0  0
    5.6349   -0.3020    0.0000 C   0  0  0  0  0  0  0  0  0  0  0  0
    6.4599   -0.3020    0.0000 C   0  0  0  0  0  0  0  0  0  0  0  0
    6.8724    0.4125    0.0000 N   0  0  0  0  0  0  0  0  0  0  0  0
    4.3974    0.4125    0.0000 C   0  0  0  0  0  0  0  0  0  0  0  0
    3.9849   -0.3020    0.0000 C   0  0  0  0  0  0  0  0  0  0  0  0
    3.1599   -0.3020    0.0000 C   0  0  0  0  0  0  0  0  0  0  0  0
    2.7474    0.4125    0.0000 C   0  0  0  0  0  0  0  0  0  0  0  0
    1.9224    0.4125    0.0000 N   0  0  0  0  0  0  0  0  0  0  0  0
    1.5099    1.1270    0.0000 C   0  0  0  0  0  0  0  0  0  0  0  0
    0.6849    1.1270    0.0000 O   0  0  0  0  0  0  0  0  0  0  0  0
    0.2724    1.8414    0.0000 C   0  0  2  0  0  0  0  0  0  0  0  0
   -0.5526    1.8414    0.0000 C   0  0  0  0  0  0  0  0  0  0  0  0
   -0.9651    1.1270    0.0000 O   0  0  0  0  0  0  0  0  0  0  0  0
   -0.9651    2.5559    0.0000 O   0  0  0  0  0  0  0  0  0  0  0  0
    0.6849    2.5559    0.0000 C   0  0  1  0  0  0  0  0  0  0  0  0
    0.2724    3.2704    0.0000 O   0  0  0  0  0  0  0  0  0  0  0  0
    1.5099    2.5559    0.0000 C   0  0  2  0  0  0  0  0  0  0  0  0
    1.9224    3.2704    0.0000 O   0  0  0  0  0  0  0  0  0  0  0  0
    1.9224    1.8414    0.0000 C   0  0  1  0  0  0  0  0  0  0  0  0
    2.7474    1.8414    0.0000 O   0  0  0  0  0  0  0  0  0  0  0  0
    3.1599    1.1270    0.0000 C   0  0  0  0  0  0  0  0  0  0  0  0
    3.9849    1.1270    0.0000 C   0  0  0  0  0  0  0  0  0  0  0  0
    4.3974    1.8414    0.0000 N   0  0  0  0  0  0  0  0  0  0  0  0
    3.9849    2.5559    0.0000 C   0  0  0  0  0  0  0  0  0  0  0  0
    3.1599    2.5559    0.0000 O   0  0  0  0  0  0  0  0  0  0  0  0
  2  1  1  6  0  0  0
  2  3  1  0  0  0  0
  3  4  1  0  0  0  0
  4  5  1  0  0  0  0
  5  6  1  0  0  0  0
  6  7  1  6  0  0  0
  7  8  1  0  0  0  0
  8  9  1  0  0  0  0
  9 10  1  0  0  0  0
 10 11  1  0  0  0  0
 11 12  4  0  0  0  0
 12 13  1  0  0  0  0
 12 14  4  0  0  0  0
 14 15  4  0  0  0  0
 15 16  4  0  0  0  0
 16 17  1  0  0  0  0
 16 18  4  0  0  0  0
 11 18  4  0  0  0  0
 18 19  1  0  0  0  0
 10 20  2  0  0  0  0
 20 21  1  0  0  0  0
  7 21  1  0  0  0  0
 21 22  2  0  0  0  0
  6 23  1  0  0  0  0
 23 24  4  0  0  0  0
 24 25  4  0  0  0  0
 25 26  4  0  0  0  0
 26 27  4  0  0  0  0
 27 28  4  0  0  0  0
 23 28  4  0  0  0  0
 25 29  1  0  0  0  0
 29 30  4  0  0  0  0
 30 31  4  0  0  0  0
 31 32  4  0  0  0  0
 32 33  1  0  0  0  0
 33 34  1  0  0  0  0
 34 35  1  0  0  0  0
 35 36  1  0  0  0  0
 36 37  1  6  0  0  0
 37 38  2  0  0  0  0
 37 39  1  0  0  0  0
 36 40  1  0  0  0  0
 40 41  1  1  0  0  0
 40 42  1  0  0  0  0
 42 43  1  6  0  0  0
 42 44  1  0  0  0  0
 34 44  1  0  0  0  0
 44 45  1  1  0  0  0
 32 46  4  0  0  0  0
 46 47  4  0  0  0  0
 29 47  4  0  0  0  0
 47 48  1  0  0  0  0
 48 49  1  0  0  0  0
  2 49  1  0  0  0  0
 49 50  2  0  0  0  0
M  END
>  <CdId>
358516

>  <Mol Weight>
713.124

>  <Formula>
C35H35ClF2N4O8

>  <cmpd_chemblid>
CHEMBL4115614

>  <std_type>
Ki

>  <std_value>
10.26

>  <std_unit>
nM

>  <target_id>
CHEMBL2016

>  <target_name>
Coagulation factor IX

>  <organism>
Homo sapiens

>  <target_type>
SINGLE PROTEIN

$$$$

  Mrv0541 08052111042D          

 44 49  0  0  1  0            999 V2000
    3.9849    3.9849    0.0000 C   0  0  0  0  0  0  0  0  0  0  0  0
    4.3974    3.2704    0.0000 C   0  0  2  0  0  0  0  0  0  0  0  0
    5.2224    3.2704    0.0000 C   0  0  0  0  0  0  0  0  0  0  0  0
    5.6349    2.5559    0.0000 C   0  0  0  0  0  0  0  0  0  0  0  0
    6.4599    2.5559    0.0000 C   0  0  0  0  0  0  0  0  0  0  0  0
    6.8724    1.8414    0.0000 C   0  0  2  0  0  0  0  0  0  0  0  0
    7.6974    1.8414    0.0000 N   0  0  0  0  0  0  0  0  0  0  0  0
    8.1099    2.5559    0.0000 C   0  0  0  0  0  0  0  0  0  0  0  0
    8.9349    2.5559    0.0000 C   0  0  0  0  0  0  0  0  0  0  0  0
    9.3474    1.8414    0.0000 C   0  0  0  0  0  0  0  0  0  0  0  0
   10.1724    1.8414    0.0000 C   0  0  0  0  0  0  0  0  0  0  0  0
   10.5849    2.5559    0.0000 C   0  0  0  0  0  0  0  0  0  0  0  0
   10.1724    3.2704    0.0000 F   0  0  0  0  0  0  0  0  0  0  0  0
   11.4099    2.5559    0.0000 C   0  0  0  0  0  0  0  0  0  0  0  0
   11.8224    1.8414    0.0000 C   0  0  0  0  0  0  0  0  0  0  0  0
   11.4099    1.1270    0.0000 C   0  0  0  0  0  0  0  0  0  0  0  0
   11.8224    0.4125    0.0000 Cl  0  0  0  0  0  0  0  0  0  0  0  0
   10.5849    1.1270    0.0000 C   0  0  0  0  0  0  0  0  0  0  0  0
   10.1724    0.4125    0.0000 F   0  0  0  0  0  0  0  0  0  0  0  0
    8.9349    1.1270    0.0000 C   0  0  0  0  0  0  0  0  0  0  0  0
    8.1099    1.1270    0.0000 C   0  0  0  0  0  0  0  0  0  0  0  0
    7.6974    0.4125    0.0000 O   0  0  0  0  0  0  0  0  0  0  0  0
    6.4599    1.1270    0.0000 C   0  0  0  0  0  0  0  0  0  0  0  0
    5.6349    1.1270    0.0000 C   0  0  0  0  0  0  0  0  0  0  0  0
    5.2224    0.4125    0.0000 C   0  0  0  0  0  0  0  0  0  0  0  0
    5.6349   -0.3020    0.0000 C   0  0  0  0  0  0  0  0  0  0  0  0
    6.4599   -0.3020    0.0000 C   0  0  0  0  0  0  0  0  0  0  0  0
    6.8724    0.4125    0.0000 N   0  0  0  0  0  0  0  0  0  0  0  0
    4.3974    0.4125    0.0000 C   0  0  0  0  0  0  0  0  0  0  0  0
    3.9849   -0.3020    0.0000 C   0  0  0  0  0  0  0  0  0  0  0  0
    3.1599   -0.3020    0.0000 C   0  0  0  0  0  0  0  0  0  0  0  0
    2.7474    0.4125    0.0000 C   0  0  0  0  0  0  0  0  0  0  0  0
    1.9224    0.4125    0.0000 N   0  0  0  0  0  0  0  0  0  0  0  0
    1.5099    1.1270    0.0000 C   0  0  0  0  0  0  0  0  0  0  0  0
    0.6849    1.1270    0.0000 N   0  0  0  0  0  0  0  0  0  0  0  0
    0.2724    1.8414    0.0000 C   0  0  0  0  0  0  0  0  0  0  0  0
    0.6849    2.5559    0.0000 C   0  0  0  0  0  0  0  0  0  0  0  0
    1.5099    2.5559    0.0000 C   0  0  0  0  0  0  0  0  0  0  0  0
    1.9224    1.8414    0.0000 N   0  0  0  0  0  0  0  0  0  0  0  0
    3.1599    1.1270    0.0000 C   0  0  0  0  0  0  0  0  0  0  0  0
    3.9849    1.1270    0.0000 C   0  0  0  0  0  0  0  0  0  0  0  0
    4.3974    1.8414    0.0000 N   0  0  0  0  0  0  0  0  0  0  0  0
    3.9849    2.5559    0.0000 C   0  0  0  0  0  0  0  0  0  0  0  0
    3.1599    2.5559    0.0000 O   0  0  0  0  0  0  0  0  0  0  0  0
  2  1  1  6  0  0  0
  2  3  1  0  0  0  0
  3  4  1  0  0  0  0
  4  5  1  0  0  0  0
  5  6  1  0  0  0  0
  6  7  1  6  0  0  0
  7  8  1  0  0  0  0
  8  9  1  0  0  0  0
  9 10  1  0  0  0  0
 10 11  1  0  0  0  0
 11 12  4  0  0  0  0
 12 13  1  0  0  0  0
 12 14  4  0  0  0  0
 14 15  4  0  0  0  0
 15 16  4  0  0  0  0
 16 17  1  0  0  0  0
 16 18  4  0  0  0  0
 11 18  4  0  0  0  0
 18 19  1  0  0  0  0
 10 20  2  0  0  0  0
 20 21  1  0  0  0  0
  7 21  1  0  0  0  0
 21 22  2  0  0  0  0
  6 23  1  0  0  0  0
 23 24  4  0  0  0  0
 24 25  4  0  0  0  0
 25 26  4  0  0  0  0
 26 27  4  0  0  0  0
 27 28  4  0  0  0  0
 23 28  4  0  0  0  0
 25 29  1  0  0  0  0
 29 30  4  0  0  0  0
 30 31  4  0  0  0  0
 31 32  4  0  0  0  0
 32 33  1  0  0  0  0
 33 34  1  0  0  0  0
 34 35  4  0  0  0  0
 35 36  4  0  0  0  0
 36 37  4  0  0  0  0
 37 38  4  0  0  0  0
 38 39  4  0  0  0  0
 34 39  4  0  0  0  0
 32 40  4  0  0  0  0
 40 41  4  0  0  0  0
 29 41  4  0  0  0  0
 41 42  1  0  0  0  0
 42 43  1  0  0  0  0
  2 43  1  0  0  0  0
 43 44  2  0  0  0  0
M  END
>  <CdId>
358517

>  <Mol Weight>
615.072

>  <Formula>
C33H29ClF2N6O2

>  <cmpd_chemblid>
CHEMBL4107104

>  <std_type>
Ki

>  <std_value>
1.15

>  <std_unit>
nM

>  <target_id>
CHEMBL2016

>  <target_name>
Coagulation factor IX

>  <organism>
Homo sapiens

>  <target_type>
SINGLE PROTEIN

$$$$

  Mrv0541 08052111042D          

 38 42  0  0  1  0            999 V2000
    3.9849    3.9849    0.0000 C   0  0  0  0  0  0  0  0  0  0  0  0
    4.3974    3.2704    0.0000 C   0  0  2  0  0  0  0  0  0  0  0  0
    5.2224    3.2704    0.0000 C   0  0  0  0  0  0  0  0  0  0  0  0
    5.6349    2.5559    0.0000 C   0  0  0  0  0  0  0  0  0  0  0  0
    6.4599    2.5559    0.0000 C   0  0  0  0  0  0  0  0  0  0  0  0
    6.8724    1.8414    0.0000 C   0  0  2  0  0  0  0  0  0  0  0  0
    7.6974    1.8414    0.0000 N   0  0  0  0  0  0  0  0  0  0  0  0
    8.1099    2.5559    0.0000 C   0  0  0  0  0  0  0  0  0  0  0  0
    8.9349    2.5559    0.0000 C   0  0  0  0  0  0  0  0  0  0  0  0
    9.3474    1.8414    0.0000 C   0  0  0  0  0  0  0  0  0  0  0  0
   10.1724    1.8414    0.0000 C   0  0  0  0  0  0  0  0  0  0  0  0
   10.5849    2.5559    0.0000 C   0  0  0  0  0  0  0  0  0  0  0  0
   10.1724    3.2704    0.0000 F   0  0  0  0  0  0  0  0  0  0  0  0
   11.4099    2.5559    0.0000 C   0  0  0  0  0  0  0  0  0  0  0  0
   11.8224    1.8414    0.0000 C   0  0  0  0  0  0  0  0  0  0  0  0
   11.4099    1.1270    0.0000 C   0  0  0  0  0  0  0  0  0  0  0  0
   11.8224    0.4125    0.0000 Cl  0  0  0  0  0  0  0  0  0  0  0  0
   10.5849    1.1270    0.0000 C   0  0  0  0  0  0  0  0  0  0  0  0
   10.1724    0.4125    0.0000 F   0  0  0  0  0  0  0  0  0  0  0  0
    8.9349    1.1270    0.0000 C   0  0  0  0  0  0  0  0  0  0  0  0
    8.1099    1.1270    0.0000 C   0  0  0  0  0  0  0  0  0  0  0  0
    7.6974    0.4125    0.0000 O   0  0  0  0  0  0  0  0  0  0  0  0
    6.4599    1.1270    0.0000 C   0  0  0  0  0  0  0  0  0  0  0  0
    5.6349    1.1270    0.0000 C   0  0  0  0  0  0  0  0  0  0  0  0
    5.2224    0.4125    0.0000 C   0  0  0  0  0  0  0  0  0  0  0  0
    5.6349   -0.3020    0.0000 C   0  0  0  0  0  0  0  0  0  0  0  0
    6.4599   -0.3020    0.0000 C   0  0  0  0  0  0  0  0  0  0  0  0
    6.8724    0.4125    0.0000 N   0  0  0  0  0  0  0  0  0  0  0  0
    4.3974    0.4125    0.0000 C   0  0  0  0  0  0  0  0  0  0  0  0
    3.9849   -0.3020    0.0000 C   0  0  0  0  0  0  0  0  0  0  0  0
    3.1599   -0.3020    0.0000 C   0  0  0  0  0  0  0  0  0  0  0  0
    2.7474    0.4125    0.0000 C   0  0  0  0  0  0  0  0  0  0  0  0
    1.9224    0.4125    0.0000 Cl  0  0  0  0  0  0  0  0  0  0  0  0
    3.1599    1.1270    0.0000 C   0  0  0  0  0  0  0  0  0  0  0  0
    3.9849    1.1270    0.0000 C   0  0  0  0  0  0  0  0  0  0  0  0
    4.3974    1.8414    0.0000 N   0  0  0  0  0  0  0  0  0  0  0  0
    3.9849    2.5559    0.0000 C   0  0  0  0  0  0  0  0  0  0  0  0
    3.1599    2.5559    0.0000 O   0  0  0  0  0  0  0  0  0  0  0  0
  2  1  1  6  0  0  0
  2  3  1  0  0  0  0
  3  4  1  0  0  0  0
  4  5  1  0  0  0  0
  5  6  1  0  0  0  0
  6  7  1  6  0  0  0
  7  8  1  0  0  0  0
  8  9  1  0  0  0  0
  9 10  1  0  0  0  0
 10 11  1  0  0  0  0
 11 12  4  0  0  0  0
 12 13  1  0  0  0  0
 12 14  4  0  0  0  0
 14 15  4  0  0  0  0
 15 16  4  0  0  0  0
 16 17  1  0  0  0  0
 16 18  4  0  0  0  0
 11 18  4  0  0  0  0
 18 19  1  0  0  0  0
 10 20  2  0  0  0  0
 20 21  1  0  0  0  0
  7 21  1  0  0  0  0
 21 22  2  0  0  0  0
  6 23  1  0  0  0  0
 23 24  4  0  0  0  0
 24 25  4  0  0  0  0
 25 26  4  0  0  0  0
 26 27  4  0  0  0  0
 27 28  4  0  0  0  0
 23 28  4  0  0  0  0
 25 29  1  0  0  0  0
 29 30  4  0  0  0  0
 30 31  4  0  0  0  0
 31 32  4  0  0  0  0
 32 33  1  0  0  0  0
 32 34  4  0  0  0  0
 34 35  4  0  0  0  0
 29 35  4  0  0  0  0
 35 36  1  0  0  0  0
 36 37  1  0  0  0  0
  2 37  1  0  0  0  0
 37 38  2  0  0  0  0
M  END
>  <CdId>
358520

>  <Mol Weight>
556.431

>  <Formula>
C29H25Cl2F2N3O2

>  <cmpd_chemblid>
CHEMBL4108970

>  <std_type>
Ki

>  <std_value>
76.12

>  <std_unit>
nM

>  <target_id>
CHEMBL2016

>  <target_name>
Coagulation factor IX

>  <organism>
Homo sapiens

>  <target_type>
SINGLE PROTEIN

$$$$

  Mrv0541 08052111042D          

 46 50  0  0  1  0            999 V2000
    8.6329   -2.2539    0.0000 C   0  0  0  0  0  0  0  0  0  0  0  0
    8.2204   -1.5395    0.0000 O   0  0  0  0  0  0  0  0  0  0  0  0
    7.3954   -1.5395    0.0000 C   0  0  0  0  0  0  0  0  0  0  0  0
    6.9829   -2.2539    0.0000 O   0  0  0  0  0  0  0  0  0  0  0  0
    6.9829   -0.8250    0.0000 N   0  0  0  0  0  0  0  0  0  0  0  0
    6.1579   -0.8250    0.0000 C   0  0  0  0  0  0  0  0  0  0  0  0
    5.7454   -0.1105    0.0000 C   0  0  0  0  0  0  0  0  0  0  0  0
    4.9204   -0.1105    0.0000 C   0  0  0  0  0  0  0  0  0  0  0  0
    4.5079   -0.8250    0.0000 C   0  0  0  0  0  0  0  0  0  0  0  0
    4.9204   -1.5395    0.0000 C   0  0  0  0  0  0  0  0  0  0  0  0
    5.7454   -1.5395    0.0000 C   0  0  0  0  0  0  0  0  0  0  0  0
    4.5079   -2.2539    0.0000 N   0  0  0  0  0  0  0  0  0  0  0  0
    4.9204   -2.9684    0.0000 C   0  0  0  0  0  0  0  0  0  0  0  0
    5.7454   -2.9684    0.0000 O   0  0  0  0  0  0  0  0  0  0  0  0
    4.5079   -3.6829    0.0000 C   0  0  2  0  0  0  0  0  0  0  0  0
    4.9204   -4.3974    0.0000 C   0  0  0  0  0  0  0  0  0  0  0  0
    3.6829   -3.6829    0.0000 C   0  0  0  0  0  0  0  0  0  0  0  0
    3.2704   -2.9684    0.0000 C   0  0  0  0  0  0  0  0  0  0  0  0
    2.4454   -2.9684    0.0000 C   0  0  0  0  0  0  0  0  0  0  0  0
    2.0329   -2.2539    0.0000 C   0  0  2  0  0  0  0  0  0  0  0  0
    1.2079   -2.2539    0.0000 N   0  0  0  0  0  0  0  0  0  0  0  0
    0.7954   -2.9684    0.0000 C   0  0  0  0  0  0  0  0  0  0  0  0
   -0.0296   -2.9684    0.0000 C   0  0  0  0  0  0  0  0  0  0  0  0
   -0.4421   -2.2539    0.0000 C   0  0  0  0  0  0  0  0  0  0  0  0
   -1.2671   -2.2539    0.0000 C   0  0  0  0  0  0  0  0  0  0  0  0
   -1.6796   -2.9684    0.0000 C   0  0  0  0  0  0  0  0  0  0  0  0
   -1.2671   -3.6829    0.0000 C   0  0  0  0  0  0  0  0  0  0  0  0
   -0.8546   -4.3974    0.0000 N   0  0  0  0  0  0  0  0  0  0  0  0
   -2.5046   -2.9684    0.0000 C   0  0  0  0  0  0  0  0  0  0  0  0
   -2.9171   -2.2539    0.0000 C   0  0  0  0  0  0  0  0  0  0  0  0
   -2.5046   -1.5395    0.0000 C   0  0  0  0  0  0  0  0  0  0  0  0
   -2.9171   -0.8250    0.0000 C   0  0  0  0  0  0  0  0  0  0  0  0
   -3.3296   -0.1105    0.0000 N   0  0  0  0  0  0  0  0  0  0  0  0
   -1.6796   -1.5395    0.0000 C   0  0  0  0  0  0  0  0  0  0  0  0
   -1.2671   -0.8250    0.0000 F   0  0  0  0  0  0  0  0  0  0  0  0
   -0.0296   -1.5395    0.0000 C   0  0  0  0  0  0  0  0  0  0  0  0
    0.7954   -1.5395    0.0000 C   0  0  0  0  0  0  0  0  0  0  0  0
    1.2079   -0.8250    0.0000 O   0  0  0  0  0  0  0  0  0  0  0  0
    2.4454   -1.5395    0.0000 C   0  0  0  0  0  0  0  0  0  0  0  0
    3.2704   -1.5395    0.0000 C   0  0  0  0  0  0  0  0  0  0  0  0
    3.6829   -0.8250    0.0000 C   0  0  0  0  0  0  0  0  0  0  0  0
    3.2704   -0.1105    0.0000 C   0  0  0  0  0  0  0  0  0  0  0  0
    2.4454   -0.1105    0.0000 C   0  0  0  0  0  0  0  0  0  0  0  0
    2.0329    0.6039    0.0000 O   0  0  0  0  0  0  0  0  0  0  0  0
    1.2079    0.6039    0.0000 C   0  0  0  0  0  0  0  0  0  0  0  0
    2.0329   -0.8250    0.0000 N   0  0  0  0  0  0  0  0  0  0  0  0
  1  2  1  0  0  0  0
  2  3  1  0  0  0  0
  3  4  2  0  0  0  0
  3  5  1  0  0  0  0
  5  6  1  0  0  0  0
  6  7  4  0  0  0  0
  7  8  4  0  0  0  0
  8  9  4  0  0  0  0
  9 10  4  0  0  0  0
 10 11  4  0  0  0  0
  6 11  4  0  0  0  0
 10 12  1  0  0  0  0
 12 13  1  0  0  0  0
 13 14  2  0  0  0  0
 13 15  1  0  0  0  0
 15 16  1  6  0  0  0
 15 17  1  0  0  0  0
 17 18  1  0  0  0  0
 18 19  1  0  0  0  0
 19 20  1  0  0  0  0
 20 21  1  6  0  0  0
 21 22  1  0  0  0  0
 22 23  1  0  0  0  0
 23 24  1  0  0  0  0
 24 25  1  0  0  0  0
 25 26  4  0  0  0  0
 26 27  1  0  0  0  0
 27 28  3  0  0  0  0
 26 29  4  0  0  0  0
 29 30  4  0  0  0  0
 30 31  4  0  0  0  0
 31 32  1  0  0  0  0
 32 33  3  0  0  0  0
 31 34  4  0  0  0  0
 25 34  4  0  0  0  0
 34 35  1  0  0  0  0
 24 36  2  0  0  0  0
 36 37  1  0  0  0  0
 21 37  1  0  0  0  0
 37 38  2  0  0  0  0
 20 39  1  0  0  0  0
 39 40  4  0  0  0  0
 40 41  4  0  0  0  0
  9 41  1  0  0  0  0
 41 42  4  0  0  0  0
 42 43  4  0  0  0  0
 43 44  1  0  0  0  0
 44 45  1  0  0  0  0
 43 46  4  0  0  0  0
 39 46  4  0  0  0  0
M  END
>  <CdId>
358521

>  <Mol Weight>
622.6455

>  <Formula>
C34H31FN6O5

>  <cmpd_chemblid>
CHEMBL4113030

>  <std_type>
Ki

>  <std_value>
5.42

>  <std_unit>
nM

>  <target_id>
CHEMBL2016

>  <target_name>
Coagulation factor IX

>  <organism>
Homo sapiens

>  <target_type>
SINGLE PROTEIN

$$$$

  Mrv0541 08052111042D          

 39 44  0  0  0  0            999 V2000
    4.2010   -5.1401    0.0000 N   0  0  0  0  0  0  0  0  0  0  0  0
    3.3760   -5.1401    0.0000 C   0  0  0  0  0  0  0  0  0  0  0  0
    2.9635   -4.4256    0.0000 N   0  0  0  0  0  0  0  0  0  0  0  0
    2.9635   -5.8546    0.0000 C   0  0  0  0  0  0  0  0  0  0  0  0
    3.3760   -6.5690    0.0000 C   0  0  0  0  0  0  0  0  0  0  0  0
    2.9635   -7.2835    0.0000 C   0  0  0  0  0  0  0  0  0  0  0  0
    2.1385   -7.2835    0.0000 C   0  0  0  0  0  0  0  0  0  0  0  0
    1.7260   -6.5690    0.0000 C   0  0  0  0  0  0  0  0  0  0  0  0
    0.9010   -6.5690    0.0000 N   0  0  0  0  0  0  0  0  0  0  0  0
    0.4161   -7.2365    0.0000 N   0  0  0  0  0  0  0  0  0  0  0  0
   -0.3686   -6.9815    0.0000 C   0  0  0  0  0  0  0  0  0  0  0  0
   -1.0360   -7.4664    0.0000 C   0  0  0  0  0  0  0  0  0  0  0  0
   -0.9498   -8.2869    0.0000 C   0  0  0  0  0  0  0  0  0  0  0  0
   -1.6172   -8.7718    0.0000 C   0  0  0  0  0  0  0  0  0  0  0  0
   -2.3709   -8.4363    0.0000 C   0  0  0  0  0  0  0  0  0  0  0  0
   -2.4571   -7.6158    0.0000 N   0  0  0  0  0  0  0  0  0  0  0  0
   -1.7897   -7.1309    0.0000 C   0  0  0  0  0  0  0  0  0  0  0  0
   -0.3686   -6.1565    0.0000 C   0  0  0  0  0  0  0  0  0  0  0  0
    0.4161   -5.9016    0.0000 C   0  0  0  0  0  0  0  0  0  0  0  0
    0.6710   -5.1170    0.0000 C   0  0  0  0  0  0  0  0  0  0  0  0
    1.4780   -4.9454    0.0000 O   0  0  0  0  0  0  0  0  0  0  0  0
    0.1190   -4.5039    0.0000 N   0  0  0  0  0  0  0  0  0  0  0  0
    0.3739   -3.7192    0.0000 C   0  0  0  0  0  0  0  0  0  0  0  0
   -0.1781   -3.1062    0.0000 C   0  0  0  0  0  0  0  0  0  0  0  0
    0.0768   -2.3215    0.0000 C   0  0  0  0  0  0  0  0  0  0  0  0
    0.8838   -2.1500    0.0000 C   0  0  0  0  0  0  0  0  0  0  0  0
    1.1387   -1.3654    0.0000 N   0  0  0  0  0  0  0  0  0  0  0  0
    0.6538   -0.6979    0.0000 C   0  0  0  0  0  0  0  0  0  0  0  0
    1.1387   -0.0305    0.0000 N   0  0  0  0  0  0  0  0  0  0  0  0
    1.9233   -0.2854    0.0000 C   0  0  0  0  0  0  0  0  0  0  0  0
    2.6378    0.1271    0.0000 C   0  0  0  0  0  0  0  0  0  0  0  0
    3.3523   -0.2854    0.0000 C   0  0  0  0  0  0  0  0  0  0  0  0
    4.0668    0.1271    0.0000 Cl  0  0  0  0  0  0  0  0  0  0  0  0
    3.3523   -1.1104    0.0000 C   0  0  0  0  0  0  0  0  0  0  0  0
    2.6378   -1.5229    0.0000 C   0  0  0  0  0  0  0  0  0  0  0  0
    1.9233   -1.1104    0.0000 C   0  0  0  0  0  0  0  0  0  0  0  0
    1.4358   -2.7631    0.0000 C   0  0  0  0  0  0  0  0  0  0  0  0
    1.1809   -3.5477    0.0000 C   0  0  0  0  0  0  0  0  0  0  0  0
    2.1385   -5.8546    0.0000 C   0  0  0  0  0  0  0  0  0  0  0  0
  1  2  2  0  0  0  0
  2  3  1  0  0  0  0
  2  4  1  0  0  0  0
  4  5  4  0  0  0  0
  5  6  4  0  0  0  0
  6  7  4  0  0  0  0
  7  8  4  0  0  0  0
  8  9  1  0  0  0  0
  9 10  4  0  0  0  0
 10 11  4  0  0  0  0
 11 12  1  0  0  0  0
 12 13  4  0  0  0  0
 13 14  4  0  0  0  0
 14 15  4  0  0  0  0
 15 16  4  0  0  0  0
 16 17  4  0  0  0  0
 12 17  4  0  0  0  0
 11 18  4  0  0  0  0
 18 19  4  0  0  0  0
  9 19  4  0  0  0  0
 19 20  1  0  0  0  0
 20 21  2  0  0  0  0
 20 22  1  0  0  0  0
 22 23  1  0  0  0  0
 23 24  4  0  0  0  0
 24 25  4  0  0  0  0
 25 26  4  0  0  0  0
 26 27  1  0  0  0  0
 27 28  4  0  0  0  0
 28 29  4  0  0  0  0
 29 30  4  0  0  0  0
 30 31  4  0  0  0  0
 31 32  4  0  0  0  0
 32 33  1  0  0  0  0
 32 34  4  0  0  0  0
 34 35  4  0  0  0  0
 35 36  4  0  0  0  0
 30 36  4  0  0  0  0
 27 36  4  0  0  0  0
 26 37  4  0  0  0  0
 37 38  4  0  0  0  0
 23 38  4  0  0  0  0
  8 39  4  0  0  0  0
  4 39  4  0  0  0  0
M  END
>  <CdId>
358523

>  <Mol Weight>
532.983

>  <Formula>
C29H21ClN8O

>  <cmpd_chemblid>
CHEMBL184887

>  <std_type>
Ki

>  <std_value>
15.0

>  <std_unit>
nM

>  <target_id>
CHEMBL2016

>  <target_name>
Coagulation factor IX

>  <organism>
Homo sapiens

>  <target_type>
SINGLE PROTEIN

$$$$

  Mrv0541 08052111042D          

 41 45  0  0  1  0            999 V2000
    8.6329   -2.2539    0.0000 C   0  0  0  0  0  0  0  0  0  0  0  0
    8.2204   -1.5395    0.0000 O   0  0  0  0  0  0  0  0  0  0  0  0
    7.3954   -1.5395    0.0000 C   0  0  0  0  0  0  0  0  0  0  0  0
    6.9829   -2.2539    0.0000 O   0  0  0  0  0  0  0  0  0  0  0  0
    6.9829   -0.8250    0.0000 N   0  0  0  0  0  0  0  0  0  0  0  0
    6.1579   -0.8250    0.0000 C   0  0  0  0  0  0  0  0  0  0  0  0
    5.7454   -0.1105    0.0000 C   0  0  0  0  0  0  0  0  0  0  0  0
    4.9204   -0.1105    0.0000 C   0  0  0  0  0  0  0  0  0  0  0  0
    4.5079   -0.8250    0.0000 C   0  0  0  0  0  0  0  0  0  0  0  0
    4.9204   -1.5395    0.0000 C   0  0  0  0  0  0  0  0  0  0  0  0
    5.7454   -1.5395    0.0000 C   0  0  0  0  0  0  0  0  0  0  0  0
    4.5079   -2.2539    0.0000 N   0  0  0  0  0  0  0  0  0  0  0  0
    4.9204   -2.9684    0.0000 C   0  0  0  0  0  0  0  0  0  0  0  0
    5.7454   -2.9684    0.0000 O   0  0  0  0  0  0  0  0  0  0  0  0
    4.5079   -3.6829    0.0000 C   0  0  2  0  0  0  0  0  0  0  0  0
    4.9204   -4.3974    0.0000 C   0  0  0  0  0  0  0  0  0  0  0  0
    3.6829   -3.6829    0.0000 C   0  0  0  0  0  0  0  0  0  0  0  0
    3.2704   -2.9684    0.0000 C   0  0  0  0  0  0  0  0  0  0  0  0
    2.4454   -2.9684    0.0000 C   0  0  0  0  0  0  0  0  0  0  0  0
    2.0329   -2.2539    0.0000 C   0  0  2  0  0  0  0  0  0  0  0  0
    1.2079   -2.2539    0.0000 N   0  0  0  0  0  0  0  0  0  0  0  0
    0.7230   -2.9214    0.0000 C   0  0  0  0  0  0  0  0  0  0  0  0
   -0.0617   -2.6664    0.0000 C   0  0  0  0  0  0  0  0  0  0  0  0
   -0.7291   -3.1514    0.0000 C   0  0  0  0  0  0  0  0  0  0  0  0
   -0.6429   -3.9718    0.0000 C   0  0  0  0  0  0  0  0  0  0  0  0
    0.1108   -4.3074    0.0000 F   0  0  0  0  0  0  0  0  0  0  0  0
   -1.3103   -4.4568    0.0000 C   0  0  0  0  0  0  0  0  0  0  0  0
   -2.0640   -4.1212    0.0000 C   0  0  0  0  0  0  0  0  0  0  0  0
   -2.1502   -3.3007    0.0000 C   0  0  0  0  0  0  0  0  0  0  0  0
   -2.9039   -2.9652    0.0000 Cl  0  0  0  0  0  0  0  0  0  0  0  0
   -1.4828   -2.8158    0.0000 C   0  0  0  0  0  0  0  0  0  0  0  0
   -1.5690   -1.9953    0.0000 F   0  0  0  0  0  0  0  0  0  0  0  0
   -0.0617   -1.8414    0.0000 C   0  0  0  0  0  0  0  0  0  0  0  0
    0.7230   -1.5865    0.0000 C   0  0  0  0  0  0  0  0  0  0  0  0
    0.9779   -0.8019    0.0000 O   0  0  0  0  0  0  0  0  0  0  0  0
    2.4454   -1.5395    0.0000 C   0  0  0  0  0  0  0  0  0  0  0  0
    3.2704   -1.5395    0.0000 C   0  0  0  0  0  0  0  0  0  0  0  0
    3.6829   -0.8250    0.0000 C   0  0  0  0  0  0  0  0  0  0  0  0
    3.2704   -0.1105    0.0000 C   0  0  0  0  0  0  0  0  0  0  0  0
    2.4454   -0.1105    0.0000 C   0  0  0  0  0  0  0  0  0  0  0  0
    2.0329   -0.8250    0.0000 N   0  0  0  0  0  0  0  0  0  0  0  0
  1  2  1  0  0  0  0
  2  3  1  0  0  0  0
  3  4  2  0  0  0  0
  3  5  1  0  0  0  0
  5  6  1  0  0  0  0
  6  7  4  0  0  0  0
  7  8  4  0  0  0  0
  8  9  4  0  0  0  0
  9 10  4  0  0  0  0
 10 11  4  0  0  0  0
  6 11  4  0  0  0  0
 10 12  1  0  0  0  0
 12 13  1  0  0  0  0
 13 14  2  0  0  0  0
 13 15  1  0  0  0  0
 15 16  1  6  0  0  0
 15 17  1  0  0  0  0
 17 18  1  0  0  0  0
 18 19  1  0  0  0  0
 19 20  1  0  0  0  0
 20 21  1  6  0  0  0
 21 22  1  0  0  0  0
 22 23  1  0  0  0  0
 23 24  1  0  0  0  0
 24 25  4  0  0  0  0
 25 26  1  0  0  0  0
 25 27  4  0  0  0  0
 27 28  4  0  0  0  0
 28 29  4  0  0  0  0
 29 30  1  0  0  0  0
 29 31  4  0  0  0  0
 24 31  4  0  0  0  0
 31 32  1  0  0  0  0
 23 33  2  0  0  0  0
 33 34  1  0  0  0  0
 21 34  1  0  0  0  0
 34 35  2  0  0  0  0
 20 36  1  0  0  0  0
 36 37  4  0  0  0  0
 37 38  4  0  0  0  0
  9 38  1  0  0  0  0
 38 39  4  0  0  0  0
 39 40  4  0  0  0  0
 40 41  4  0  0  0  0
 36 41  4  0  0  0  0
M  END
>  <CdId>
358524

>  <Mol Weight>
581.01

>  <Formula>
C30H27ClF2N4O4

>  <cmpd_chemblid>
CHEMBL4109747

>  <std_type>
Ki

>  <std_value>
407.6

>  <std_unit>
nM

>  <target_id>
CHEMBL2016

>  <target_name>
Coagulation factor IX

>  <organism>
Homo sapiens

>  <target_type>
SINGLE PROTEIN

$$$$

  Mrv0541 08052111042D          

 39 44  0  0  1  0            999 V2000
   10.2293    2.9548    0.0000 N   0  0  0  0  0  0  0  0  0  0  0  0
    9.5148    3.3673    0.0000 C   0  0  0  0  0  0  0  0  0  0  0  0
    9.5148    4.1923    0.0000 N   0  0  0  0  0  0  0  0  0  0  0  0
    8.8003    2.9548    0.0000 C   0  0  0  0  0  0  0  0  0  0  0  0
    8.8003    2.1298    0.0000 C   0  0  0  0  0  0  0  0  0  0  0  0
    8.0859    1.7173    0.0000 C   0  0  0  0  0  0  0  0  0  0  0  0
    7.3714    2.1298    0.0000 C   0  0  0  0  0  0  0  0  0  0  0  0
    6.5868    1.8748    0.0000 N   0  0  0  0  0  0  0  0  0  0  0  0
    6.1019    2.5423    0.0000 C   0  0  0  0  0  0  0  0  0  0  0  0
    6.5868    3.2097    0.0000 C   0  0  0  0  0  0  0  0  0  0  0  0
    6.3318    3.9943    0.0000 C   0  0  2  0  0  0  0  0  0  0  0  0
    5.5249    4.1659    0.0000 C   0  0  0  0  0  0  0  0  0  0  0  0
    5.2699    4.9505    0.0000 C   0  0  0  0  0  0  0  0  0  0  0  0
    4.4630    5.1220    0.0000 C   0  0  0  0  0  0  0  0  0  0  0  0
    4.2080    5.9066    0.0000 C   0  0  0  0  0  0  0  0  0  0  0  0
    4.7600    6.5197    0.0000 C   0  0  0  0  0  0  0  0  0  0  0  0
    5.5670    6.3482    0.0000 C   0  0  0  0  0  0  0  0  0  0  0  0
    5.8220    5.5636    0.0000 C   0  0  0  0  0  0  0  0  0  0  0  0
    6.8839    4.6074    0.0000 C   0  0  0  0  0  0  0  0  0  0  0  0
    7.6908    4.4359    0.0000 O   0  0  0  0  0  0  0  0  0  0  0  0
    6.6289    5.3921    0.0000 N   0  0  0  0  0  0  0  0  0  0  0  0
    7.1810    6.0052    0.0000 C   0  0  0  0  0  0  0  0  0  0  0  0
    6.9260    6.7898    0.0000 C   0  0  0  0  0  0  0  0  0  0  0  0
    7.4781    7.4029    0.0000 C   0  0  0  0  0  0  0  0  0  0  0  0
    8.2850    7.2313    0.0000 C   0  0  0  0  0  0  0  0  0  0  0  0
    8.8371    7.8444    0.0000 N   0  0  0  0  0  0  0  0  0  0  0  0
    8.6655    8.6514    0.0000 C   0  0  0  0  0  0  0  0  0  0  0  0
    9.3800    9.0639    0.0000 N   0  0  0  0  0  0  0  0  0  0  0  0
    9.9931    8.5119    0.0000 C   0  0  0  0  0  0  0  0  0  0  0  0
   10.8136    8.5981    0.0000 C   0  0  0  0  0  0  0  0  0  0  0  0
   11.2985    7.9307    0.0000 C   0  0  0  0  0  0  0  0  0  0  0  0
   10.9629    7.1770    0.0000 C   0  0  0  0  0  0  0  0  0  0  0  0
   10.1425    7.0908    0.0000 C   0  0  0  0  0  0  0  0  0  0  0  0
    9.6575    7.7582    0.0000 C   0  0  0  0  0  0  0  0  0  0  0  0
    8.5400    6.4467    0.0000 C   0  0  0  0  0  0  0  0  0  0  0  0
    7.9879    5.8336    0.0000 C   0  0  0  0  0  0  0  0  0  0  0  0
    8.2429    5.0490    0.0000 F   0  0  0  0  0  0  0  0  0  0  0  0
    7.3714    2.9548    0.0000 C   0  0  0  0  0  0  0  0  0  0  0  0
    8.0859    3.3673    0.0000 C   0  0  0  0  0  0  0  0  0  0  0  0
  1  2  2  0  0  0  0
  2  3  1  0  0  0  0
  2  4  1  0  0  0  0
  4  5  4  0  0  0  0
  5  6  4  0  0  0  0
  6  7  4  0  0  0  0
  7  8  4  0  0  0  0
  8  9  4  0  0  0  0
  9 10  4  0  0  0  0
 10 11  1  0  0  0  0
 11 12  1  0  0  0  0
 12 13  1  0  0  0  0
 13 14  4  0  0  0  0
 14 15  4  0  0  0  0
 15 16  4  0  0  0  0
 16 17  4  0  0  0  0
 17 18  4  0  0  0  0
 13 18  4  0  0  0  0
 11 19  1  6  0  0  0
 19 20  2  0  0  0  0
 19 21  1  0  0  0  0
 21 22  1  0  0  0  0
 22 23  4  0  0  0  0
 23 24  4  0  0  0  0
 24 25  4  0  0  0  0
 25 26  1  0  0  0  0
 26 27  4  0  0  0  0
 27 28  4  0  0  0  0
 28 29  4  0  0  0  0
 29 30  4  0  0  0  0
 30 31  4  0  0  0  0
 31 32  4  0  0  0  0
 32 33  4  0  0  0  0
 33 34  4  0  0  0  0
 29 34  4  0  0  0  0
 26 34  4  0  0  0  0
 25 35  4  0  0  0  0
 35 36  4  0  0  0  0
 22 36  4  0  0  0  0
 36 37  1  0  0  0  0
 10 38  4  0  0  0  0
  7 38  4  0  0  0  0
 38 39  4  0  0  0  0
  4 39  4  0  0  0  0
M  STY  1   1 DAT
M  SAL   1  1   8
M  SDT   1 MRV_IMPLICIT_H                                        
M  SDD   1     0.0000    0.0000    DR    ALL  0       0  
M  SED   1 IMPL_H1
M  END
>  <CdId>
358525

>  <Mol Weight>
516.5682

>  <Formula>
C31H25FN6O

>  <cmpd_chemblid>
CHEMBL2096790

>  <std_type>
Ki

>  <std_value>
820.0

>  <std_unit>
nM

>  <target_id>
CHEMBL2016

>  <target_name>
Coagulation factor IX

>  <organism>
Homo sapiens

>  <target_type>
SINGLE PROTEIN

$$$$

  Mrv0541 08052111042D          

 34 38  0  0  1  0            999 V2000
    2.7845    0.6979    0.0000 C   0  0  0  0  0  0  0  0  0  0  0  0
    2.0701    1.1104    0.0000 C   0  0  0  0  0  0  0  0  0  0  0  0
    1.3556    0.6979    0.0000 C   0  0  0  0  0  0  0  0  0  0  0  0
    0.6411    1.1104    0.0000 C   0  0  0  0  0  0  0  0  0  0  0  0
   -0.1435    0.8555    0.0000 N   0  0  0  0  0  0  0  0  0  0  0  0
   -0.6284    1.5229    0.0000 C   0  0  0  0  0  0  0  0  0  0  0  0
   -1.4534    1.5229    0.0000 C   0  0  2  0  0  0  0  0  0  0  0  0
   -1.8659    0.8085    0.0000 C   0  0  0  0  0  0  0  0  0  0  0  0
   -2.6909    0.8085    0.0000 N   0  0  0  0  0  0  0  0  0  0  0  0
   -3.1034    0.0940    0.0000 C   0  0  0  0  0  0  0  0  0  0  0  0
   -2.6909   -0.6205    0.0000 O   0  0  0  0  0  0  0  0  0  0  0  0
   -3.9284    0.0940    0.0000 C   0  0  0  0  0  0  0  0  0  0  0  0
   -4.3409   -0.6205    0.0000 C   0  0  0  0  0  0  0  0  0  0  0  0
   -5.1659   -0.6205    0.0000 C   0  0  0  0  0  0  0  0  0  0  0  0
   -5.5784    0.0940    0.0000 C   0  0  0  0  0  0  0  0  0  0  0  0
   -6.4034    0.0940    0.0000 N   0  0  0  0  0  0  0  0  0  0  0  0
   -6.8884   -0.5734    0.0000 C   0  0  0  0  0  0  0  0  0  0  0  0
   -7.6730   -0.3185    0.0000 N   0  0  0  0  0  0  0  0  0  0  0  0
   -7.6730    0.5065    0.0000 N   0  0  0  0  0  0  0  0  0  0  0  0
   -6.8884    0.7614    0.0000 C   0  0  0  0  0  0  0  0  0  0  0  0
   -5.1659    0.8085    0.0000 C   0  0  0  0  0  0  0  0  0  0  0  0
   -4.3409    0.8085    0.0000 C   0  0  0  0  0  0  0  0  0  0  0  0
   -3.9284    1.5229    0.0000 Cl  0  0  0  0  0  0  0  0  0  0  0  0
   -1.8659    2.2374    0.0000 C   0  0  0  0  0  0  0  0  0  0  0  0
   -2.6909    2.2374    0.0000 C   0  0  0  0  0  0  0  0  0  0  0  0
   -3.1034    2.9519    0.0000 C   0  0  0  0  0  0  0  0  0  0  0  0
   -2.6909    3.6664    0.0000 C   0  0  0  0  0  0  0  0  0  0  0  0
   -1.8659    3.6664    0.0000 C   0  0  0  0  0  0  0  0  0  0  0  0
   -1.4534    2.9519    0.0000 C   0  0  0  0  0  0  0  0  0  0  0  0
   -0.1435    2.1904    0.0000 N   0  0  0  0  0  0  0  0  0  0  0  0
    0.6411    1.9354    0.0000 C   0  0  0  0  0  0  0  0  0  0  0  0
    1.3556    2.3479    0.0000 C   0  0  0  0  0  0  0  0  0  0  0  0
    2.0701    1.9354    0.0000 C   0  0  0  0  0  0  0  0  0  0  0  0
    2.7845    2.3479    0.0000 C   0  0  0  0  0  0  0  0  0  0  0  0
  1  2  1  0  0  0  0
  2  3  4  0  0  0  0
  3  4  4  0  0  0  0
  4  5  4  0  0  0  0
  5  6  4  0  0  0  0
  6  7  1  0  0  0  0
  7  8  1  0  0  0  0
  8  9  1  0  0  0  0
  9 10  1  0  0  0  0
 10 11  2  0  0  0  0
 10 12  1  0  0  0  0
 12 13  4  0  0  0  0
 13 14  4  0  0  0  0
 14 15  4  0  0  0  0
 15 16  1  0  0  0  0
 16 17  4  0  0  0  0
 17 18  4  0  0  0  0
 18 19  4  0  0  0  0
 19 20  4  0  0  0  0
 16 20  4  0  0  0  0
 15 21  4  0  0  0  0
 21 22  4  0  0  0  0
 12 22  4  0  0  0  0
 22 23  1  0  0  0  0
  7 24  1  6  0  0  0
 24 25  4  0  0  0  0
 25 26  4  0  0  0  0
 26 27  4  0  0  0  0
 27 28  4  0  0  0  0
 28 29  4  0  0  0  0
 24 29  4  0  0  0  0
  6 30  4  0  0  0  0
 30 31  4  0  0  0  0
  4 31  4  0  0  0  0
 31 32  4  0  0  0  0
 32 33  4  0  0  0  0
  2 33  4  0  0  0  0
 33 34  1  0  0  0  0
M  STY  1   1 DAT
M  SAL   1  1  30
M  SDT   1 MRV_IMPLICIT_H                                        
M  SDD   1     0.0000    0.0000    DR    ALL  0       0  
M  SED   1 IMPL_H1
M  END
>  <CdId>
358527

>  <Mol Weight>
470.953

>  <Formula>
C26H23ClN6O

>  <cmpd_chemblid>
CHEMBL3423059

>  <std_type>
Ki

>  <std_value>
520.0

>  <std_unit>
nM

>  <target_id>
CHEMBL2016

>  <target_name>
Coagulation factor IX

>  <organism>
Homo sapiens

>  <target_type>
SINGLE PROTEIN

$$$$

  Mrv0541 08052111042D          

 38 42  0  0  1  0            999 V2000
    3.9849    3.9849    0.0000 C   0  0  0  0  0  0  0  0  0  0  0  0
    4.3974    3.2704    0.0000 C   0  0  2  0  0  0  0  0  0  0  0  0
    5.2224    3.2704    0.0000 C   0  0  0  0  0  0  0  0  0  0  0  0
    5.6349    2.5559    0.0000 C   0  0  0  0  0  0  0  0  0  0  0  0
    6.4599    2.5559    0.0000 C   0  0  0  0  0  0  0  0  0  0  0  0
    6.8724    1.8414    0.0000 C   0  0  2  0  0  0  0  0  0  0  0  0
    7.6974    1.8414    0.0000 N   0  0  0  0  0  0  0  0  0  0  0  0
    8.1099    2.5559    0.0000 C   0  0  0  0  0  0  0  0  0  0  0  0
    8.9349    2.5559    0.0000 C   0  0  0  0  0  0  0  0  0  0  0  0
    9.3474    1.8414    0.0000 C   0  0  0  0  0  0  0  0  0  0  0  0
   10.1724    1.8414    0.0000 C   0  0  0  0  0  0  0  0  0  0  0  0
   10.5849    2.5559    0.0000 C   0  0  0  0  0  0  0  0  0  0  0  0
   10.1724    3.2704    0.0000 F   0  0  0  0  0  0  0  0  0  0  0  0
   11.4099    2.5559    0.0000 C   0  0  0  0  0  0  0  0  0  0  0  0
   11.8224    1.8414    0.0000 C   0  0  0  0  0  0  0  0  0  0  0  0
   11.4099    1.1270    0.0000 C   0  0  0  0  0  0  0  0  0  0  0  0
   11.8224    0.4125    0.0000 Cl  0  0  0  0  0  0  0  0  0  0  0  0
   10.5849    1.1270    0.0000 C   0  0  0  0  0  0  0  0  0  0  0  0
   10.1724    0.4125    0.0000 F   0  0  0  0  0  0  0  0  0  0  0  0
    8.9349    1.1270    0.0000 C   0  0  0  0  0  0  0  0  0  0  0  0
    8.1099    1.1270    0.0000 C   0  0  0  0  0  0  0  0  0  0  0  0
    7.6974    0.4125    0.0000 O   0  0  0  0  0  0  0  0  0  0  0  0
    6.4599    1.1270    0.0000 C   0  0  0  0  0  0  0  0  0  0  0  0
    5.6349    1.1270    0.0000 C   0  0  0  0  0  0  0  0  0  0  0  0
    5.2224    0.4125    0.0000 C   0  0  0  0  0  0  0  0  0  0  0  0
    5.6349   -0.3020    0.0000 C   0  0  0  0  0  0  0  0  0  0  0  0
    6.4599   -0.3020    0.0000 C   0  0  0  0  0  0  0  0  0  0  0  0
    6.8724    0.4125    0.0000 N   0  0  0  0  0  0  0  0  0  0  0  0
    4.3974    0.4125    0.0000 C   0  0  0  0  0  0  0  0  0  0  0  0
    3.9849   -0.3020    0.0000 C   0  0  0  0  0  0  0  0  0  0  0  0
    3.1599   -0.3020    0.0000 C   0  0  0  0  0  0  0  0  0  0  0  0
    2.7474    0.4125    0.0000 C   0  0  0  0  0  0  0  0  0  0  0  0
    1.9224    0.4125    0.0000 N   0  0  0  0  0  0  0  0  0  0  0  0
    3.1599    1.1270    0.0000 C   0  0  0  0  0  0  0  0  0  0  0  0
    3.9849    1.1270    0.0000 C   0  0  0  0  0  0  0  0  0  0  0  0
    4.3974    1.8414    0.0000 N   0  0  0  0  0  0  0  0  0  0  0  0
    3.9849    2.5559    0.0000 C   0  0  0  0  0  0  0  0  0  0  0  0
    3.1599    2.5559    0.0000 O   0  0  0  0  0  0  0  0  0  0  0  0
  2  1  1  6  0  0  0
  2  3  1  0  0  0  0
  3  4  1  0  0  0  0
  4  5  1  0  0  0  0
  5  6  1  0  0  0  0
  6  7  1  6  0  0  0
  7  8  4  0  0  0  0
  8  9  4  0  0  0  0
  9 10  4  0  0  0  0
 10 11  1  0  0  0  0
 11 12  4  0  0  0  0
 12 13  1  0  0  0  0
 12 14  4  0  0  0  0
 14 15  4  0  0  0  0
 15 16  4  0  0  0  0
 16 17  1  0  0  0  0
 16 18  4  0  0  0  0
 11 18  4  0  0  0  0
 18 19  1  0  0  0  0
 10 20  4  0  0  0  0
 20 21  4  0  0  0  0
  7 21  4  0  0  0  0
 21 22  2  0  0  0  0
  6 23  1  0  0  0  0
 23 24  4  0  0  0  0
 24 25  4  0  0  0  0
 25 26  4  0  0  0  0
 26 27  4  0  0  0  0
 27 28  4  0  0  0  0
 23 28  4  0  0  0  0
 25 29  1  0  0  0  0
 29 30  4  0  0  0  0
 30 31  4  0  0  0  0
 31 32  4  0  0  0  0
 32 33  1  0  0  0  0
 32 34  4  0  0  0  0
 34 35  4  0  0  0  0
 29 35  4  0  0  0  0
 35 36  1  0  0  0  0
 36 37  1  0  0  0  0
  2 37  1  0  0  0  0
 37 38  2  0  0  0  0
M  END
>  <CdId>
358528

>  <Mol Weight>
534.984

>  <Formula>
C29H25ClF2N4O2

>  <cmpd_chemblid>
CHEMBL4112483

>  <std_type>
Ki

>  <std_value>
0.56

>  <std_unit>
nM

>  <target_id>
CHEMBL2016

>  <target_name>
Coagulation factor IX

>  <organism>
Homo sapiens

>  <target_type>
SINGLE PROTEIN

$$$$

  Mrv0541 08052111042D          

 44 48  0  0  1  0            999 V2000
    4.5375   -2.9684    0.0000 C   0  0  0  0  0  0  0  0  0  0  0  0
    4.1250   -2.2539    0.0000 O   0  0  0  0  0  0  0  0  0  0  0  0
    3.3000   -2.2539    0.0000 C   0  0  0  0  0  0  0  0  0  0  0  0
    2.8875   -2.9684    0.0000 O   0  0  0  0  0  0  0  0  0  0  0  0
    2.8875   -1.5395    0.0000 C   0  0  0  0  0  0  0  0  0  0  0  0
    3.3000   -0.8250    0.0000 C   0  0  0  0  0  0  0  0  0  0  0  0
    2.8875   -0.1105    0.0000 C   0  0  0  0  0  0  0  0  0  0  0  0
    2.0625   -0.1105    0.0000 C   0  0  0  0  0  0  0  0  0  0  0  0
    1.6500   -0.8250    0.0000 C   0  0  0  0  0  0  0  0  0  0  0  0
    2.0625   -1.5395    0.0000 C   0  0  0  0  0  0  0  0  0  0  0  0
    0.8250   -0.8250    0.0000 C   0  0  0  0  0  0  0  0  0  0  0  0
    0.4125   -1.5395    0.0000 C   0  0  0  0  0  0  0  0  0  0  0  0
   -0.4125   -1.5395    0.0000 C   0  0  0  0  0  0  0  0  0  0  0  0
   -0.8250   -0.8250    0.0000 N   0  0  0  0  0  0  0  0  0  0  0  0
   -0.4125   -0.1105    0.0000 C   0  0  0  0  0  0  0  0  0  0  0  0
    0.4125   -0.1105    0.0000 C   0  0  0  0  0  0  0  0  0  0  0  0
   -0.8250    0.6039    0.0000 C   0  0  1  0  0  0  0  0  0  0  0  0
   -1.6500    0.6039    0.0000 N   0  0  0  0  0  0  0  0  0  0  0  0
   -2.0625   -0.1105    0.0000 C   0  0  0  0  0  0  0  0  0  0  0  0
   -2.8875   -0.1105    0.0000 C   0  0  0  0  0  0  0  0  0  0  0  0
   -3.3000    0.6039    0.0000 C   0  0  0  0  0  0  0  0  0  0  0  0
   -4.1250    0.6039    0.0000 C   0  0  0  0  0  0  0  0  0  0  0  0
   -4.5375   -0.1105    0.0000 C   0  0  0  0  0  0  0  0  0  0  0  0
   -4.1250   -0.8250    0.0000 C   0  0  0  0  0  0  0  0  0  0  0  0
   -3.7125   -1.5395    0.0000 F   0  0  0  0  0  0  0  0  0  0  0  0
   -4.8395   -1.2375    0.0000 F   0  0  0  0  0  0  0  0  0  0  0  0
   -3.4105   -0.4125    0.0000 F   0  0  0  0  0  0  0  0  0  0  0  0
   -5.3625   -0.1105    0.0000 C   0  0  0  0  0  0  0  0  0  0  0  0
   -5.7750    0.6039    0.0000 C   0  0  0  0  0  0  0  0  0  0  0  0
   -5.3625    1.3184    0.0000 C   0  0  0  0  0  0  0  0  0  0  0  0
   -5.7750    2.0329    0.0000 Cl  0  0  0  0  0  0  0  0  0  0  0  0
   -4.5375    1.3184    0.0000 C   0  0  0  0  0  0  0  0  0  0  0  0
   -4.1250    2.0329    0.0000 F   0  0  0  0  0  0  0  0  0  0  0  0
   -2.8875    1.3184    0.0000 C   0  0  0  0  0  0  0  0  0  0  0  0
   -2.0625    1.3184    0.0000 C   0  0  0  0  0  0  0  0  0  0  0  0
   -1.6500    2.0329    0.0000 O   0  0  0  0  0  0  0  0  0  0  0  0
   -0.4125    1.3184    0.0000 C   0  0  0  0  0  0  0  0  0  0  0  0
    0.4125    1.3184    0.0000 C   0  0  0  0  0  0  0  0  0  0  0  0
    0.8250    2.0329    0.0000 C   0  0  0  0  0  0  0  0  0  0  0  0
    1.6500    2.0329    0.0000 C   0  0  1  0  0  0  0  0  0  0  0  0
    2.0625    2.7474    0.0000 C   0  0  0  0  0  0  0  0  0  0  0  0
    2.0625    1.3184    0.0000 C   0  0  0  0  0  0  0  0  0  0  0  0
    2.8875    1.3184    0.0000 O   0  0  0  0  0  0  0  0  0  0  0  0
    1.6500    0.6039    0.0000 N   0  0  0  0  0  0  0  0  0  0  0  0
  1  2  1  0  0  0  0
  2  3  1  0  0  0  0
  3  4  2  0  0  0  0
  3  5  1  0  0  0  0
  5  6  4  0  0  0  0
  6  7  4  0  0  0  0
  7  8  4  0  0  0  0
  8  9  4  0  0  0  0
  9 10  4  0  0  0  0
  5 10  4  0  0  0  0
  9 11  1  0  0  0  0
 11 12  4  0  0  0  0
 12 13  4  0  0  0  0
 13 14  4  0  0  0  0
 14 15  4  0  0  0  0
 15 16  4  0  0  0  0
 11 16  4  0  0  0  0
 15 17  1  0  0  0  0
 17 18  1  1  0  0  0
 18 19  1  0  0  0  0
 19 20  1  0  0  0  0
 20 21  1  0  0  0  0
 21 22  1  0  0  0  0
 22 23  4  0  0  0  0
 23 24  1  0  0  0  0
 24 25  1  0  0  0  0
 24 26  1  0  0  0  0
 24 27  1  0  0  0  0
 23 28  4  0  0  0  0
 28 29  4  0  0  0  0
 29 30  4  0  0  0  0
 30 31  1  0  0  0  0
 30 32  4  0  0  0  0
 22 32  4  0  0  0  0
 32 33  1  0  0  0  0
 21 34  2  0  0  0  0
 34 35  1  0  0  0  0
 18 35  1  0  0  0  0
 35 36  2  0  0  0  0
 17 37  1  0  0  0  0
 37 38  1  0  0  0  0
 38 39  1  0  0  0  0
 39 40  1  0  0  0  0
 40 41  1  1  0  0  0
 40 42  1  0  0  0  0
 42 43  2  0  0  0  0
 42 44  1  0  0  0  0
  8 44  1  0  0  0  0
M  END
>  <CdId>
358529

>  <Mol Weight>
630.029

>  <Formula>
C32H28ClF4N3O4

>  <cmpd_chemblid>
CHEMBL4108805

>  <std_type>
Ki

>  <std_value>
57.93

>  <std_unit>
nM

>  <target_id>
CHEMBL2016

>  <target_name>
Coagulation factor IX

>  <organism>
Homo sapiens

>  <target_type>
SINGLE PROTEIN

$$$$

  Mrv0541 08052111042D          

 28 31  0  0  0  0            999 V2000
   -0.5837   -1.4124    0.0000 N   0  0  0  0  0  0  0  0  0  0  0  0
   -0.1712   -0.6979    0.0000 C   0  0  0  0  0  0  0  0  0  0  0  0
   -0.5837    0.0165    0.0000 N   0  0  0  0  0  0  0  0  0  0  0  0
    0.6538   -0.6979    0.0000 C   0  0  0  0  0  0  0  0  0  0  0  0
    1.1387   -0.0305    0.0000 C   0  0  0  0  0  0  0  0  0  0  0  0
    1.9233   -0.2854    0.0000 C   0  0  0  0  0  0  0  0  0  0  0  0
    2.6378    0.1271    0.0000 C   0  0  0  0  0  0  0  0  0  0  0  0
    3.3523   -0.2854    0.0000 C   0  0  0  0  0  0  0  0  0  0  0  0
    4.0668    0.1271    0.0000 C   0  0  0  0  0  0  0  0  0  0  0  0
    4.0668    0.9521    0.0000 C   0  0  0  0  0  0  0  0  0  0  0  0
    4.7812    1.3646    0.0000 C   0  0  0  0  0  0  0  0  0  0  0  0
    5.4957    0.9521    0.0000 C   0  0  0  0  0  0  0  0  0  0  0  0
    5.4957    0.1271    0.0000 C   0  0  0  0  0  0  0  0  0  0  0  0
    6.2102   -0.2854    0.0000 O   0  0  0  0  0  0  0  0  0  0  0  0
    6.9246    0.1271    0.0000 C   0  0  0  0  0  0  0  0  0  0  0  0
    7.6391   -0.2854    0.0000 C   0  0  0  0  0  0  0  0  0  0  0  0
    8.3536    0.1271    0.0000 C   0  0  0  0  0  0  0  0  0  0  0  0
    9.0681   -0.2854    0.0000 C   0  0  0  0  0  0  0  0  0  0  0  0
    9.0681   -1.1104    0.0000 C   0  0  0  0  0  0  0  0  0  0  0  0
    9.7825   -1.5229    0.0000 F   0  0  0  0  0  0  0  0  0  0  0  0
    8.3536   -1.5229    0.0000 C   0  0  0  0  0  0  0  0  0  0  0  0
    8.3536   -2.3479    0.0000 F   0  0  0  0  0  0  0  0  0  0  0  0
    7.6391   -1.1104    0.0000 C   0  0  0  0  0  0  0  0  0  0  0  0
    4.7812   -0.2854    0.0000 C   0  0  0  0  0  0  0  0  0  0  0  0
    3.3523   -1.1104    0.0000 C   0  0  0  0  0  0  0  0  0  0  0  0
    2.6378   -1.5229    0.0000 C   0  0  0  0  0  0  0  0  0  0  0  0
    1.9233   -1.1104    0.0000 C   0  0  0  0  0  0  0  0  0  0  0  0
    1.1387   -1.3654    0.0000 S   0  0  0  0  0  0  0  0  0  0  0  0
  1  2  2  0  0  0  0
  2  3  1  0  0  0  0
  2  4  1  0  0  0  0
  4  5  4  0  0  0  0
  5  6  4  0  0  0  0
  6  7  4  0  0  0  0
  7  8  4  0  0  0  0
  8  9  1  0  0  0  0
  9 10  4  0  0  0  0
 10 11  4  0  0  0  0
 11 12  4  0  0  0  0
 12 13  4  0  0  0  0
 13 14  1  0  0  0  0
 14 15  1  0  0  0  0
 15 16  1  0  0  0  0
 16 17  4  0  0  0  0
 17 18  4  0  0  0  0
 18 19  4  0  0  0  0
 19 20  1  0  0  0  0
 19 21  4  0  0  0  0
 21 22  1  0  0  0  0
 21 23  4  0  0  0  0
 16 23  4  0  0  0  0
 13 24  4  0  0  0  0
  9 24  4  0  0  0  0
  8 25  4  0  0  0  0
 25 26  4  0  0  0  0
 26 27  4  0  0  0  0
  6 27  4  0  0  0  0
 27 28  4  0  0  0  0
  4 28  4  0  0  0  0
M  END
>  <CdId>
358530

>  <Mol Weight>
394.437

>  <Formula>
C22H16F2N2OS

>  <cmpd_chemblid>
CHEMBL596765

>  <std_type>
Ki

>  <std_value>
450.0

>  <std_unit>
nM

>  <target_id>
CHEMBL2016

>  <target_name>
Coagulation factor IX

>  <organism>
Homo sapiens

>  <target_type>
SINGLE PROTEIN

$$$$

  Mrv0541 08052111042D          

 43 48  0  0  1  0            999 V2000
   -2.4096   -1.7502    0.0000 C   0  0  0  0  0  0  0  0  0  0  0  0
   -1.6027   -1.5787    0.0000 C   0  0  0  0  0  0  0  0  0  0  0  0
   -0.9896   -2.1307    0.0000 N   0  0  0  0  0  0  0  0  0  0  0  0
   -0.2751   -1.7182    0.0000 N   0  0  0  0  0  0  0  0  0  0  0  0
    0.4786   -2.0538    0.0000 C   0  0  0  0  0  0  0  0  0  0  0  0
   -0.4466   -0.9112    0.0000 C   0  0  0  0  0  0  0  0  0  0  0  0
   -1.2671   -0.8250    0.0000 C   0  0  0  0  0  0  0  0  0  0  0  0
   -1.6796   -0.1105    0.0000 C   0  0  0  0  0  0  0  0  0  0  0  0
   -2.5046   -0.1105    0.0000 C   0  0  0  0  0  0  0  0  0  0  0  0
   -2.9171    0.6039    0.0000 C   0  0  0  0  0  0  0  0  0  0  0  0
   -2.5046    1.3184    0.0000 C   0  0  0  0  0  0  0  0  0  0  0  0
   -2.9171    2.0329    0.0000 Cl  0  0  0  0  0  0  0  0  0  0  0  0
   -1.6796    1.3184    0.0000 C   0  0  0  0  0  0  0  0  0  0  0  0
   -1.2671    2.0329    0.0000 F   0  0  0  0  0  0  0  0  0  0  0  0
   -1.2671    0.6039    0.0000 C   0  0  0  0  0  0  0  0  0  0  0  0
   -0.4421    0.6039    0.0000 C   0  0  0  0  0  0  0  0  0  0  0  0
   -0.0296    1.3184    0.0000 C   0  0  0  0  0  0  0  0  0  0  0  0
    0.7954    1.3184    0.0000 C   0  0  0  0  0  0  0  0  0  0  0  0
    1.2079    2.0329    0.0000 O   0  0  0  0  0  0  0  0  0  0  0  0
    1.2079    0.6039    0.0000 N   0  0  0  0  0  0  0  0  0  0  0  0
    2.0329    0.6039    0.0000 C   0  0  1  0  0  0  0  0  0  0  0  0
    2.4454    1.3184    0.0000 C   0  0  0  0  0  0  0  0  0  0  0  0
    3.2704    1.3184    0.0000 C   0  0  0  0  0  0  0  0  0  0  0  0
    3.6829    2.0329    0.0000 C   0  0  0  0  0  0  0  0  0  0  0  0
    4.5079    2.0329    0.0000 C   0  0  1  0  0  0  0  0  0  0  0  0
    4.9204    2.7474    0.0000 C   0  0  0  0  0  0  0  0  0  0  0  0
    4.9204    1.3184    0.0000 C   0  0  0  0  0  0  0  0  0  0  0  0
    5.7454    1.3184    0.0000 O   0  0  0  0  0  0  0  0  0  0  0  0
    4.5079    0.6039    0.0000 N   0  0  0  0  0  0  0  0  0  0  0  0
    4.9204   -0.1105    0.0000 C   0  0  0  0  0  0  0  0  0  0  0  0
    5.7454   -0.1105    0.0000 C   0  0  0  0  0  0  0  0  0  0  0  0
    6.1579   -0.8250    0.0000 C   0  0  0  0  0  0  0  0  0  0  0  0
    5.7454   -1.5395    0.0000 C   0  0  0  0  0  0  0  0  0  0  0  0
    4.9204   -1.5395    0.0000 C   0  0  0  0  0  0  0  0  0  0  0  0
    4.5079   -0.8250    0.0000 C   0  0  0  0  0  0  0  0  0  0  0  0
    3.6829   -0.8250    0.0000 C   0  0  0  0  0  0  0  0  0  0  0  0
    3.2704   -1.5395    0.0000 C   0  0  0  0  0  0  0  0  0  0  0  0
    2.4454   -1.5395    0.0000 C   0  0  0  0  0  0  0  0  0  0  0  0
    2.0329   -0.8250    0.0000 N   0  0  0  0  0  0  0  0  0  0  0  0
    2.4454   -0.1105    0.0000 C   0  0  0  0  0  0  0  0  0  0  0  0
    3.2704   -0.1105    0.0000 C   0  0  0  0  0  0  0  0  0  0  0  0
    0.7954   -0.1105    0.0000 C   0  0  0  0  0  0  0  0  0  0  0  0
   -0.0296   -0.1105    0.0000 C   0  0  0  0  0  0  0  0  0  0  0  0
  1  2  1  0  0  0  0
  2  3  4  0  0  0  0
  3  4  4  0  0  0  0
  4  5  1  0  0  0  0
  4  6  4  0  0  0  0
  6  7  4  0  0  0  0
  2  7  4  0  0  0  0
  7  8  1  0  0  0  0
  8  9  4  0  0  0  0
  9 10  4  0  0  0  0
 10 11  4  0  0  0  0
 11 12  1  0  0  0  0
 11 13  4  0  0  0  0
 13 14  1  0  0  0  0
 13 15  4  0  0  0  0
  8 15  4  0  0  0  0
 15 16  1  0  0  0  0
 16 17  2  0  0  0  0
 17 18  1  0  0  0  0
 18 19  2  0  0  0  0
 18 20  1  0  0  0  0
 21 20  1  1  0  0  0
 21 22  1  0  0  0  0
 22 23  1  0  0  0  0
 23 24  1  0  0  0  0
 24 25  1  0  0  0  0
 25 26  1  1  0  0  0
 25 27  1  0  0  0  0
 27 28  2  0  0  0  0
 27 29  1  0  0  0  0
 29 30  1  0  0  0  0
 30 31  4  0  0  0  0
 31 32  4  0  0  0  0
 32 33  4  0  0  0  0
 33 34  4  0  0  0  0
 34 35  4  0  0  0  0
 30 35  4  0  0  0  0
 35 36  1  0  0  0  0
 36 37  4  0  0  0  0
 37 38  4  0  0  0  0
 38 39  4  0  0  0  0
 39 40  4  0  0  0  0
 21 40  1  0  0  0  0
 40 41  4  0  0  0  0
 36 41  4  0  0  0  0
 20 42  1  0  0  0  0
 42 43  1  0  0  0  0
 16 43  1  0  0  0  0
M  END
>  <CdId>
358531

>  <Mol Weight>
598.11

>  <Formula>
C34H33ClFN5O2

>  <cmpd_chemblid>
CHEMBL4115676

>  <std_type>
Ki

>  <std_value>
409.3

>  <std_unit>
nM

>  <target_id>
CHEMBL2016

>  <target_name>
Coagulation factor IX

>  <organism>
Homo sapiens

>  <target_type>
SINGLE PROTEIN

$$$$

  Mrv0541 08052111042D          

 27 30  0  0  0  0            999 V2000
   -0.5837   -1.4124    0.0000 N   0  0  0  0  0  0  0  0  0  0  0  0
   -0.1712   -0.6979    0.0000 C   0  0  0  0  0  0  0  0  0  0  0  0
   -0.5837    0.0165    0.0000 N   0  0  0  0  0  0  0  0  0  0  0  0
    0.6538   -0.6979    0.0000 C   0  0  0  0  0  0  0  0  0  0  0  0
    1.1387   -0.0305    0.0000 C   0  0  0  0  0  0  0  0  0  0  0  0
    1.9233   -0.2854    0.0000 C   0  0  0  0  0  0  0  0  0  0  0  0
    2.6378    0.1271    0.0000 C   0  0  0  0  0  0  0  0  0  0  0  0
    3.3523   -0.2854    0.0000 C   0  0  0  0  0  0  0  0  0  0  0  0
    4.0668    0.1271    0.0000 C   0  0  0  0  0  0  0  0  0  0  0  0
    4.0668    0.9521    0.0000 C   0  0  0  0  0  0  0  0  0  0  0  0
    4.7812    1.3646    0.0000 C   0  0  0  0  0  0  0  0  0  0  0  0
    5.4957    0.9521    0.0000 C   0  0  0  0  0  0  0  0  0  0  0  0
    5.4957    0.1271    0.0000 C   0  0  0  0  0  0  0  0  0  0  0  0
    6.2102   -0.2854    0.0000 O   0  0  0  0  0  0  0  0  0  0  0  0
    6.9246    0.1271    0.0000 C   0  0  0  0  0  0  0  0  0  0  0  0
    7.6391   -0.2854    0.0000 C   0  0  0  0  0  0  0  0  0  0  0  0
    8.3536    0.1271    0.0000 C   0  0  0  0  0  0  0  0  0  0  0  0
    9.0681   -0.2854    0.0000 C   0  0  0  0  0  0  0  0  0  0  0  0
    9.0681   -1.1104    0.0000 C   0  0  0  0  0  0  0  0  0  0  0  0
    8.3536   -1.5229    0.0000 C   0  0  0  0  0  0  0  0  0  0  0  0
    8.3536   -2.3479    0.0000 F   0  0  0  0  0  0  0  0  0  0  0  0
    7.6391   -1.1104    0.0000 C   0  0  0  0  0  0  0  0  0  0  0  0
    4.7812   -0.2854    0.0000 C   0  0  0  0  0  0  0  0  0  0  0  0
    3.3523   -1.1104    0.0000 C   0  0  0  0  0  0  0  0  0  0  0  0
    2.6378   -1.5229    0.0000 C   0  0  0  0  0  0  0  0  0  0  0  0
    1.9233   -1.1104    0.0000 C   0  0  0  0  0  0  0  0  0  0  0  0
    1.1387   -1.3654    0.0000 S   0  0  0  0  0  0  0  0  0  0  0  0
  1  2  2  0  0  0  0
  2  3  1  0  0  0  0
  2  4  1  0  0  0  0
  4  5  4  0  0  0  0
  5  6  4  0  0  0  0
  6  7  4  0  0  0  0
  7  8  4  0  0  0  0
  8  9  1  0  0  0  0
  9 10  4  0  0  0  0
 10 11  4  0  0  0  0
 11 12  4  0  0  0  0
 12 13  4  0  0  0  0
 13 14  1  0  0  0  0
 14 15  1  0  0  0  0
 15 16  1  0  0  0  0
 16 17  4  0  0  0  0
 17 18  4  0  0  0  0
 18 19  4  0  0  0  0
 19 20  4  0  0  0  0
 20 21  1  0  0  0  0
 20 22  4  0  0  0  0
 16 22  4  0  0  0  0
 13 23  4  0  0  0  0
  9 23  4  0  0  0  0
  8 24  4  0  0  0  0
 24 25  4  0  0  0  0
 25 26  4  0  0  0  0
  6 26  4  0  0  0  0
 26 27  4  0  0  0  0
  4 27  4  0  0  0  0
M  END
>  <CdId>
358532

>  <Mol Weight>
376.447

>  <Formula>
C22H17FN2OS

>  <cmpd_chemblid>
CHEMBL592411

>  <std_type>
Ki

>  <std_value>
680.0

>  <std_unit>
nM

>  <target_id>
CHEMBL2016

>  <target_name>
Coagulation factor IX

>  <organism>
Homo sapiens

>  <target_type>
SINGLE PROTEIN

$$$$

  Mrv0541 08052111042D          

 37 41  0  0  1  0            999 V2000
    0.8838   -2.1500    0.0000 N   0  0  0  0  0  0  0  0  0  0  0  0
    1.1387   -1.3654    0.0000 C   0  0  0  0  0  0  0  0  0  0  0  0
    0.6538   -0.6979    0.0000 N   0  0  0  0  0  0  0  0  0  0  0  0
    1.1387   -0.0305    0.0000 C   0  0  0  0  0  0  0  0  0  0  0  0
    1.9233   -0.2854    0.0000 C   0  0  0  0  0  0  0  0  0  0  0  0
    2.6378    0.1271    0.0000 C   0  0  0  0  0  0  0  0  0  0  0  0
    3.3523   -0.2854    0.0000 C   0  0  0  0  0  0  0  0  0  0  0  0
    4.0668    0.1271    0.0000 N   0  0  0  0  0  0  0  0  0  0  0  0
    4.0668    0.9521    0.0000 C   0  0  0  0  0  0  0  0  0  0  0  0
    3.3523    1.3646    0.0000 O   0  0  0  0  0  0  0  0  0  0  0  0
    4.7812    1.3646    0.0000 C   0  0  0  0  0  0  0  0  0  0  0  0
    5.4957    0.9521    0.0000 O   0  0  0  0  0  0  0  0  0  0  0  0
    4.7812    2.1896    0.0000 C   0  0  1  0  0  0  0  0  0  0  0  0
    4.0668    2.6021    0.0000 O   0  0  0  0  0  0  0  0  0  0  0  0
    4.0668    3.4271    0.0000 C   0  0  0  0  0  0  0  0  0  0  0  0
    4.7812    3.8396    0.0000 C   0  0  0  0  0  0  0  0  0  0  0  0
    5.4957    3.4271    0.0000 N   0  0  0  0  0  0  0  0  0  0  0  0
    6.2102    3.8396    0.0000 C   0  0  0  0  0  0  0  0  0  0  0  0
    6.2102    4.6646    0.0000 C   0  0  0  0  0  0  0  0  0  0  0  0
    6.9246    5.0771    0.0000 C   0  0  0  0  0  0  0  0  0  0  0  0
    7.6391    4.6646    0.0000 C   0  0  0  0  0  0  0  0  0  0  0  0
    8.3536    5.0771    0.0000 F   0  0  0  0  0  0  0  0  0  0  0  0
    7.6391    3.8396    0.0000 C   0  0  0  0  0  0  0  0  0  0  0  0
    8.3536    3.4271    0.0000 C   0  0  0  0  0  0  0  0  0  0  0  0
    9.0681    3.8396    0.0000 O   0  0  0  0  0  0  0  0  0  0  0  0
    8.3536    2.6021    0.0000 N   0  0  0  0  0  0  0  0  0  0  0  0
    9.0681    2.1896    0.0000 C   0  0  0  0  0  0  0  0  0  0  0  0
    9.0681    1.3646    0.0000 C   0  0  0  0  0  0  0  0  0  0  0  0
    8.3536    0.9521    0.0000 O   0  0  0  0  0  0  0  0  0  0  0  0
    7.6391    1.3646    0.0000 C   0  0  0  0  0  0  0  0  0  0  0  0
    7.6391    2.1896    0.0000 C   0  0  0  0  0  0  0  0  0  0  0  0
    6.9246    3.4271    0.0000 C   0  0  0  0  0  0  0  0  0  0  0  0
    5.4957    2.6021    0.0000 C   0  0  0  0  0  0  0  0  0  0  0  0
    6.2102    2.1896    0.0000 O   0  0  0  0  0  0  0  0  0  0  0  0
    3.3523   -1.1104    0.0000 C   0  0  0  0  0  0  0  0  0  0  0  0
    2.6378   -1.5229    0.0000 C   0  0  0  0  0  0  0  0  0  0  0  0
    1.9233   -1.1104    0.0000 C   0  0  0  0  0  0  0  0  0  0  0  0
  1  2  2  0  0  0  0
  2  3  1  0  0  0  0
  3  4  1  0  0  0  0
  4  5  1  0  0  0  0
  5  6  4  0  0  0  0
  6  7  4  0  0  0  0
  7  8  1  0  0  0  0
  8  9  1  0  0  0  0
  9 10  2  0  0  0  0
  9 11  1  0  0  0  0
 11 12  1  0  0  0  0
 13 11  1  1  0  0  0
 13 14  1  0  0  0  0
 14 15  1  0  0  0  0
 15 16  1  0  0  0  0
 16 17  1  0  0  0  0
 17 18  1  0  0  0  0
 18 19  4  0  0  0  0
 19 20  4  0  0  0  0
 20 21  4  0  0  0  0
 21 22  1  0  0  0  0
 21 23  4  0  0  0  0
 23 24  1  0  0  0  0
 24 25  2  0  0  0  0
 24 26  1  0  0  0  0
 26 27  1  0  0  0  0
 27 28  1  0  0  0  0
 28 29  1  0  0  0  0
 29 30  1  0  0  0  0
 30 31  1  0  0  0  0
 26 31  1  0  0  0  0
 23 32  4  0  0  0  0
 18 32  4  0  0  0  0
 17 33  1  0  0  0  0
 13 33  1  0  0  0  0
 33 34  2  0  0  0  0
  7 35  4  0  0  0  0
 35 36  4  0  0  0  0
 36 37  4  0  0  0  0
  5 37  4  0  0  0  0
  2 37  1  0  0  0  0
M  END
>  <CdId>
358534

>  <Mol Weight>
511.5022

>  <Formula>
C25H26FN5O6

>  <cmpd_chemblid>
CHEMBL3658395

>  <std_type>
Ki

>  <std_value>
6.5

>  <std_unit>
nM

>  <target_id>
CHEMBL2016

>  <target_name>
Coagulation factor IX

>  <organism>
Homo sapiens

>  <target_type>
SINGLE PROTEIN

$$$$

  Mrv0541 08052111042D          

 33 37  0  0  0  0            999 V2000
    1.1809   -3.5477    0.0000 C   0  0  0  0  0  0  0  0  0  0  0  0
    1.4358   -2.7631    0.0000 C   0  0  0  0  0  0  0  0  0  0  0  0
    0.8838   -2.1500    0.0000 C   0  0  0  0  0  0  0  0  0  0  0  0
    0.0768   -2.3215    0.0000 C   0  0  0  0  0  0  0  0  0  0  0  0
   -0.4752   -1.7084    0.0000 O   0  0  0  0  0  0  0  0  0  0  0  0
   -0.1781   -3.1062    0.0000 N   0  0  0  0  0  0  0  0  0  0  0  0
   -0.9851   -3.2777    0.0000 C   0  0  0  0  0  0  0  0  0  0  0  0
   -1.2400   -4.0623    0.0000 C   0  0  0  0  0  0  0  0  0  0  0  0
   -2.0470   -4.2338    0.0000 C   0  0  0  0  0  0  0  0  0  0  0  0
   -2.5990   -3.6207    0.0000 C   0  0  0  0  0  0  0  0  0  0  0  0
   -3.4060   -3.7923    0.0000 N   0  0  0  0  0  0  0  0  0  0  0  0
   -3.7416   -4.5459    0.0000 C   0  0  0  0  0  0  0  0  0  0  0  0
   -4.5621   -4.4597    0.0000 N   0  0  0  0  0  0  0  0  0  0  0  0
   -4.7336   -3.6527    0.0000 C   0  0  0  0  0  0  0  0  0  0  0  0
   -5.4481   -3.2402    0.0000 C   0  0  0  0  0  0  0  0  0  0  0  0
   -5.4481   -2.4152    0.0000 C   0  0  0  0  0  0  0  0  0  0  0  0
   -4.7336   -2.0027    0.0000 C   0  0  0  0  0  0  0  0  0  0  0  0
   -4.0191   -2.4152    0.0000 C   0  0  0  0  0  0  0  0  0  0  0  0
   -4.0191   -3.2402    0.0000 C   0  0  0  0  0  0  0  0  0  0  0  0
   -2.3441   -2.8361    0.0000 C   0  0  0  0  0  0  0  0  0  0  0  0
   -1.5371   -2.6646    0.0000 C   0  0  0  0  0  0  0  0  0  0  0  0
    1.1387   -1.3654    0.0000 C   0  0  0  0  0  0  0  0  0  0  0  0
    0.6538   -0.6979    0.0000 C   0  0  0  0  0  0  0  0  0  0  0  0
    1.1387   -0.0305    0.0000 N   0  0  0  0  0  0  0  0  0  0  0  0
    1.9233   -0.2854    0.0000 C   0  0  0  0  0  0  0  0  0  0  0  0
    2.6378    0.1271    0.0000 C   0  0  0  0  0  0  0  0  0  0  0  0
    3.3523   -0.2854    0.0000 C   0  0  0  0  0  0  0  0  0  0  0  0
    3.3523   -1.1104    0.0000 C   0  0  0  0  0  0  0  0  0  0  0  0
    4.0668   -1.5229    0.0000 C   0  0  0  0  0  0  0  0  0  0  0  0
    4.7812   -1.1104    0.0000 N   0  0  0  0  0  0  0  0  0  0  0  0
    4.0668   -2.3479    0.0000 N   0  0  0  0  0  0  0  0  0  0  0  0
    2.6378   -1.5229    0.0000 C   0  0  0  0  0  0  0  0  0  0  0  0
    1.9233   -1.1104    0.0000 C   0  0  0  0  0  0  0  0  0  0  0  0
  1  2  1  0  0  0  0
  2  3  1  0  0  0  0
  3  4  1  0  0  0  0
  4  5  2  0  0  0  0
  4  6  1  0  0  0  0
  6  7  1  0  0  0  0
  7  8  4  0  0  0  0
  8  9  4  0  0  0  0
  9 10  4  0  0  0  0
 10 11  1  0  0  0  0
 11 12  4  0  0  0  0
 12 13  4  0  0  0  0
 13 14  4  0  0  0  0
 14 15  4  0  0  0  0
 15 16  4  0  0  0  0
 16 17  4  0  0  0  0
 17 18  4  0  0  0  0
 18 19  4  0  0  0  0
 14 19  4  0  0  0  0
 11 19  4  0  0  0  0
 10 20  4  0  0  0  0
 20 21  4  0  0  0  0
  7 21  4  0  0  0  0
  3 22  1  0  0  0  0
 22 23  4  0  0  0  0
 23 24  4  0  0  0  0
 24 25  4  0  0  0  0
 25 26  4  0  0  0  0
 26 27  4  0  0  0  0
 27 28  4  0  0  0  0
 28 29  1  0  0  0  0
 29 30  2  0  0  0  0
 29 31  1  0  0  0  0
 28 32  4  0  0  0  0
 32 33  4  0  0  0  0
 22 33  4  0  0  0  0
 25 33  4  0  0  0  0
M  STY  1   1 DAT
M  SAL   1  1  24
M  SDT   1 MRV_IMPLICIT_H                                        
M  SDD   1     0.0000    0.0000    DR    ALL  0       0  
M  SED   1 IMPL_H1
M  END
>  <CdId>
358536

>  <Mol Weight>
436.5084

>  <Formula>
C26H24N6O

>  <cmpd_chemblid>
CHEMBL364191

>  <std_type>
Ki

>  <std_value>
160.0

>  <std_unit>
nM

>  <target_id>
CHEMBL2016

>  <target_name>
Coagulation factor IX

>  <organism>
Homo sapiens

>  <target_type>
SINGLE PROTEIN

$$$$

  Mrv0541 08052111042D          

 40 44  0  0  1  0            999 V2000
    3.9849    3.9849    0.0000 C   0  0  0  0  0  0  0  0  0  0  0  0
    4.3974    3.2704    0.0000 C   0  0  2  0  0  0  0  0  0  0  0  0
    5.2224    3.2704    0.0000 C   0  0  0  0  0  0  0  0  0  0  0  0
    5.6349    2.5559    0.0000 C   0  0  0  0  0  0  0  0  0  0  0  0
    6.4599    2.5559    0.0000 C   0  0  0  0  0  0  0  0  0  0  0  0
    6.8724    1.8414    0.0000 C   0  0  2  0  0  0  0  0  0  0  0  0
    7.6974    1.8414    0.0000 N   0  0  0  0  0  0  0  0  0  0  0  0
    8.1099    2.5559    0.0000 C   0  0  0  0  0  0  0  0  0  0  0  0
    8.9349    2.5559    0.0000 C   0  0  0  0  0  0  0  0  0  0  0  0
    9.3474    1.8414    0.0000 C   0  0  0  0  0  0  0  0  0  0  0  0
   10.1724    1.8414    0.0000 C   0  0  0  0  0  0  0  0  0  0  0  0
   10.5849    2.5559    0.0000 C   0  0  0  0  0  0  0  0  0  0  0  0
   10.1724    3.2704    0.0000 F   0  0  0  0  0  0  0  0  0  0  0  0
   11.4099    2.5559    0.0000 C   0  0  0  0  0  0  0  0  0  0  0  0
   11.8224    1.8414    0.0000 C   0  0  0  0  0  0  0  0  0  0  0  0
   11.4099    1.1270    0.0000 C   0  0  0  0  0  0  0  0  0  0  0  0
   11.8224    0.4125    0.0000 C   0  0  0  0  0  0  0  0  0  0  0  0
   12.2349   -0.3020    0.0000 N   0  0  0  0  0  0  0  0  0  0  0  0
   10.5849    1.1270    0.0000 C   0  0  0  0  0  0  0  0  0  0  0  0
   10.1724    0.4125    0.0000 F   0  0  0  0  0  0  0  0  0  0  0  0
    8.9349    1.1270    0.0000 C   0  0  0  0  0  0  0  0  0  0  0  0
    8.1099    1.1270    0.0000 C   0  0  0  0  0  0  0  0  0  0  0  0
    7.6974    0.4125    0.0000 O   0  0  0  0  0  0  0  0  0  0  0  0
    6.4599    1.1270    0.0000 C   0  0  0  0  0  0  0  0  0  0  0  0
    5.6349    1.1270    0.0000 C   0  0  0  0  0  0  0  0  0  0  0  0
    5.2224    0.4125    0.0000 C   0  0  0  0  0  0  0  0  0  0  0  0
    5.6349   -0.3020    0.0000 C   0  0  0  0  0  0  0  0  0  0  0  0
    6.4599   -0.3020    0.0000 C   0  0  0  0  0  0  0  0  0  0  0  0
    6.8724    0.4125    0.0000 N   0  0  0  0  0  0  0  0  0  0  0  0
    4.3974    0.4125    0.0000 C   0  0  0  0  0  0  0  0  0  0  0  0
    3.9849   -0.3020    0.0000 C   0  0  0  0  0  0  0  0  0  0  0  0
    3.1599   -0.3020    0.0000 C   0  0  0  0  0  0  0  0  0  0  0  0
    2.7474   -1.0164    0.0000 C   0  0  0  0  0  0  0  0  0  0  0  0
    2.3349   -1.7309    0.0000 N   0  0  0  0  0  0  0  0  0  0  0  0
    2.7474    0.4125    0.0000 C   0  0  0  0  0  0  0  0  0  0  0  0
    3.1599    1.1270    0.0000 C   0  0  0  0  0  0  0  0  0  0  0  0
    3.9849    1.1270    0.0000 C   0  0  0  0  0  0  0  0  0  0  0  0
    4.3974    1.8414    0.0000 N   0  0  0  0  0  0  0  0  0  0  0  0
    3.9849    2.5559    0.0000 C   0  0  0  0  0  0  0  0  0  0  0  0
    3.1599    2.5559    0.0000 O   0  0  0  0  0  0  0  0  0  0  0  0
  2  1  1  6  0  0  0
  2  3  1  0  0  0  0
  3  4  1  0  0  0  0
  4  5  1  0  0  0  0
  5  6  1  0  0  0  0
  6  7  1  6  0  0  0
  7  8  1  0  0  0  0
  8  9  1  0  0  0  0
  9 10  1  0  0  0  0
 10 11  1  0  0  0  0
 11 12  4  0  0  0  0
 12 13  1  0  0  0  0
 12 14  4  0  0  0  0
 14 15  4  0  0  0  0
 15 16  4  0  0  0  0
 16 17  1  0  0  0  0
 17 18  3  0  0  0  0
 16 19  4  0  0  0  0
 11 19  4  0  0  0  0
 19 20  1  0  0  0  0
 10 21  2  0  0  0  0
 21 22  1  0  0  0  0
  7 22  1  0  0  0  0
 22 23  2  0  0  0  0
  6 24  1  0  0  0  0
 24 25  4  0  0  0  0
 25 26  4  0  0  0  0
 26 27  4  0  0  0  0
 27 28  4  0  0  0  0
 28 29  4  0  0  0  0
 24 29  4  0  0  0  0
 26 30  1  0  0  0  0
 30 31  4  0  0  0  0
 31 32  4  0  0  0  0
 32 33  1  0  0  0  0
 33 34  3  0  0  0  0
 32 35  4  0  0  0  0
 35 36  4  0  0  0  0
 36 37  4  0  0  0  0
 30 37  4  0  0  0  0
 37 38  1  0  0  0  0
 38 39  1  0  0  0  0
  2 39  1  0  0  0  0
 39 40  2  0  0  0  0
M  END
>  <CdId>
358537

>  <Mol Weight>
537.5593

>  <Formula>
C31H25F2N5O2

>  <cmpd_chemblid>
CHEMBL4107572

>  <std_type>
Ki

>  <std_value>
408.0

>  <std_unit>
nM

>  <target_id>
CHEMBL2016

>  <target_name>
Coagulation factor IX

>  <organism>
Homo sapiens

>  <target_type>
SINGLE PROTEIN

$$$$

  Mrv0541 08052111042D          

 41 45  0  0  1  0            999 V2000
    3.9849    3.9849    0.0000 C   0  0  0  0  0  0  0  0  0  0  0  0
    4.3974    3.2704    0.0000 C   0  0  2  0  0  0  0  0  0  0  0  0
    5.2224    3.2704    0.0000 C   0  0  0  0  0  0  0  0  0  0  0  0
    5.6349    2.5559    0.0000 C   0  0  0  0  0  0  0  0  0  0  0  0
    6.4599    2.5559    0.0000 C   0  0  0  0  0  0  0  0  0  0  0  0
    6.8724    1.8414    0.0000 C   0  0  2  0  0  0  0  0  0  0  0  0
    7.6974    1.8414    0.0000 N   0  0  0  0  0  0  0  0  0  0  0  0
    8.1099    2.5559    0.0000 C   0  0  0  0  0  0  0  0  0  0  0  0
    8.9349    2.5559    0.0000 C   0  0  0  0  0  0  0  0  0  0  0  0
    9.3474    1.8414    0.0000 C   0  0  0  0  0  0  0  0  0  0  0  0
   10.1724    1.8414    0.0000 C   0  0  0  0  0  0  0  0  0  0  0  0
   10.5849    2.5559    0.0000 C   0  0  0  0  0  0  0  0  0  0  0  0
   10.1724    3.2704    0.0000 F   0  0  0  0  0  0  0  0  0  0  0  0
   11.4099    2.5559    0.0000 C   0  0  0  0  0  0  0  0  0  0  0  0
   11.8224    1.8414    0.0000 C   0  0  0  0  0  0  0  0  0  0  0  0
   11.4099    1.1270    0.0000 C   0  0  0  0  0  0  0  0  0  0  0  0
   11.8224    0.4125    0.0000 Cl  0  0  0  0  0  0  0  0  0  0  0  0
   10.5849    1.1270    0.0000 C   0  0  0  0  0  0  0  0  0  0  0  0
   10.1724    0.4125    0.0000 F   0  0  0  0  0  0  0  0  0  0  0  0
    8.9349    1.1270    0.0000 C   0  0  0  0  0  0  0  0  0  0  0  0
    8.1099    1.1270    0.0000 C   0  0  0  0  0  0  0  0  0  0  0  0
    7.6974    0.4125    0.0000 O   0  0  0  0  0  0  0  0  0  0  0  0
    6.4599    1.1270    0.0000 C   0  0  0  0  0  0  0  0  0  0  0  0
    5.6349    1.1270    0.0000 C   0  0  0  0  0  0  0  0  0  0  0  0
    5.2224    0.4125    0.0000 C   0  0  0  0  0  0  0  0  0  0  0  0
    5.6349   -0.3020    0.0000 C   0  0  0  0  0  0  0  0  0  0  0  0
    6.4599   -0.3020    0.0000 C   0  0  0  0  0  0  0  0  0  0  0  0
    6.8724    0.4125    0.0000 N   0  0  0  0  0  0  0  0  0  0  0  0
    4.3974    0.4125    0.0000 C   0  0  0  0  0  0  0  0  0  0  0  0
    3.9849   -0.3020    0.0000 C   0  0  0  0  0  0  0  0  0  0  0  0
    3.1599   -0.3020    0.0000 C   0  0  0  0  0  0  0  0  0  0  0  0
    2.7474    0.4125    0.0000 C   0  0  0  0  0  0  0  0  0  0  0  0
    1.9224    0.4125    0.0000 N   0  0  0  0  0  0  0  0  0  0  0  0
    1.5099    1.1270    0.0000 C   0  0  0  0  0  0  0  0  0  0  0  0
    0.6849    1.1270    0.0000 N   0  0  0  0  0  0  0  0  0  0  0  0
    1.9224    1.8414    0.0000 N   0  0  0  0  0  0  0  0  0  0  0  0
    3.1599    1.1270    0.0000 C   0  0  0  0  0  0  0  0  0  0  0  0
    3.9849    1.1270    0.0000 C   0  0  0  0  0  0  0  0  0  0  0  0
    4.3974    1.8414    0.0000 N   0  0  0  0  0  0  0  0  0  0  0  0
    3.9849    2.5559    0.0000 C   0  0  0  0  0  0  0  0  0  0  0  0
    3.1599    2.5559    0.0000 O   0  0  0  0  0  0  0  0  0  0  0  0
  2  1  1  6  0  0  0
  2  3  1  0  0  0  0
  3  4  1  0  0  0  0
  4  5  1  0  0  0  0
  5  6  1  0  0  0  0
  6  7  1  6  0  0  0
  7  8  1  0  0  0  0
  8  9  1  0  0  0  0
  9 10  1  0  0  0  0
 10 11  1  0  0  0  0
 11 12  4  0  0  0  0
 12 13  1  0  0  0  0
 12 14  4  0  0  0  0
 14 15  4  0  0  0  0
 15 16  4  0  0  0  0
 16 17  1  0  0  0  0
 16 18  4  0  0  0  0
 11 18  4  0  0  0  0
 18 19  1  0  0  0  0
 10 20  2  0  0  0  0
 20 21  1  0  0  0  0
  7 21  1  0  0  0  0
 21 22  2  0  0  0  0
  6 23  1  0  0  0  0
 23 24  4  0  0  0  0
 24 25  4  0  0  0  0
 25 26  4  0  0  0  0
 26 27  4  0  0  0  0
 27 28  4  0  0  0  0
 23 28  4  0  0  0  0
 25 29  1  0  0  0  0
 29 30  4  0  0  0  0
 30 31  4  0  0  0  0
 31 32  4  0  0  0  0
 32 33  1  0  0  0  0
 33 34  1  0  0  0  0
 34 35  2  0  0  0  0
 34 36  1  0  0  0  0
 32 37  4  0  0  0  0
 37 38  4  0  0  0  0
 29 38  4  0  0  0  0
 38 39  1  0  0  0  0
 39 40  1  0  0  0  0
  2 40  1  0  0  0  0
 40 41  2  0  0  0  0
M  END
>  <CdId>
358538

>  <Mol Weight>
579.04

>  <Formula>
C30H29ClF2N6O2

>  <cmpd_chemblid>
CHEMBL4109318

>  <std_type>
Ki

>  <std_value>
90.97

>  <std_unit>
nM

>  <target_id>
CHEMBL2016

>  <target_name>
Coagulation factor IX

>  <organism>
Homo sapiens

>  <target_type>
SINGLE PROTEIN

$$$$

  Mrv0541 08052111042D          

 31 35  0  0  0  0            999 V2000
    0.8838   -2.1500    0.0000 N   0  0  0  0  0  0  0  0  0  0  0  0
    1.1387   -1.3654    0.0000 C   0  0  0  0  0  0  0  0  0  0  0  0
    0.6538   -0.6979    0.0000 N   0  0  0  0  0  0  0  0  0  0  0  0
    1.1387   -0.0305    0.0000 O   0  0  0  0  0  0  0  0  0  0  0  0
    1.9233   -0.2854    0.0000 C   0  0  0  0  0  0  0  0  0  0  0  0
    2.6378    0.1271    0.0000 C   0  0  0  0  0  0  0  0  0  0  0  0
    2.6378    0.9521    0.0000 N   0  0  0  0  0  0  0  0  0  0  0  0
    1.9704    1.4370    0.0000 C   0  0  0  0  0  0  0  0  0  0  0  0
    2.2253    2.2216    0.0000 C   0  0  0  0  0  0  0  0  0  0  0  0
    3.0503    2.2216    0.0000 C   0  0  0  0  0  0  0  0  0  0  0  0
    3.5352    2.8890    0.0000 N   0  0  0  0  0  0  0  0  0  0  0  0
    3.1997    3.6427    0.0000 C   0  0  0  0  0  0  0  0  0  0  0  0
    2.3792    3.7290    0.0000 O   0  0  0  0  0  0  0  0  0  0  0  0
    3.6846    4.3102    0.0000 C   0  0  0  0  0  0  0  0  0  0  0  0
    3.3490    5.0638    0.0000 C   0  0  0  0  0  0  0  0  0  0  0  0
    3.8340    5.7313    0.0000 C   0  0  0  0  0  0  0  0  0  0  0  0
    4.6544    5.6450    0.0000 C   0  0  0  0  0  0  0  0  0  0  0  0
    5.1394    6.3125    0.0000 N   0  0  0  0  0  0  0  0  0  0  0  0
    4.8844    7.0971    0.0000 C   0  0  0  0  0  0  0  0  0  0  0  0
    5.5519    7.5820    0.0000 N   0  0  0  0  0  0  0  0  0  0  0  0
    6.2193    7.0971    0.0000 N   0  0  0  0  0  0  0  0  0  0  0  0
    5.9644    6.3125    0.0000 C   0  0  0  0  0  0  0  0  0  0  0  0
    4.9900    4.8914    0.0000 C   0  0  0  0  0  0  0  0  0  0  0  0
    4.5051    4.2239    0.0000 C   0  0  0  0  0  0  0  0  0  0  0  0
    4.8406    3.4702    0.0000 Cl  0  0  0  0  0  0  0  0  0  0  0  0
    3.3053    1.4370    0.0000 C   0  0  0  0  0  0  0  0  0  0  0  0
    3.3523   -0.2854    0.0000 C   0  0  0  0  0  0  0  0  0  0  0  0
    3.3523   -1.1104    0.0000 C   0  0  0  0  0  0  0  0  0  0  0  0
    4.0668   -1.5229    0.0000 Cl  0  0  0  0  0  0  0  0  0  0  0  0
    2.6378   -1.5229    0.0000 C   0  0  0  0  0  0  0  0  0  0  0  0
    1.9233   -1.1104    0.0000 C   0  0  0  0  0  0  0  0  0  0  0  0
  1  2  1  0  0  0  0
  2  3  4  0  0  0  0
  3  4  4  0  0  0  0
  4  5  4  0  0  0  0
  5  6  4  0  0  0  0
  6  7  1  0  0  0  0
  7  8  1  0  0  0  0
  8  9  1  0  0  0  0
  9 10  1  0  0  0  0
 10 11  1  0  0  0  0
 11 12  1  0  0  0  0
 12 13  2  0  0  0  0
 12 14  1  0  0  0  0
 14 15  4  0  0  0  0
 15 16  4  0  0  0  0
 16 17  4  0  0  0  0
 17 18  1  0  0  0  0
 18 19  4  0  0  0  0
 19 20  4  0  0  0  0
 20 21  4  0  0  0  0
 21 22  4  0  0  0  0
 18 22  4  0  0  0  0
 17 23  4  0  0  0  0
 23 24  4  0  0  0  0
 14 24  4  0  0  0  0
 24 25  1  0  0  0  0
 10 26  1  0  0  0  0
  7 26  1  0  0  0  0
  6 27  4  0  0  0  0
 27 28  4  0  0  0  0
 28 29  1  0  0  0  0
 28 30  4  0  0  0  0
 30 31  4  0  0  0  0
  2 31  4  0  0  0  0
  5 31  4  0  0  0  0
M  END
>  <CdId>
358539

>  <Mol Weight>
458.301

>  <Formula>
C20H17Cl2N7O2

>  <cmpd_chemblid>
CHEMBL4090664

>  <std_type>
Ki

>  <std_value>
9.0

>  <std_unit>
nM

>  <target_id>
CHEMBL2016

>  <target_name>
Coagulation factor IX

>  <organism>
Homo sapiens

>  <target_type>
SINGLE PROTEIN

$$$$

  Mrv0541 08052111042D          

 38 42  0  0  1  0            999 V2000
   -4.8011   -7.1082    0.0000 C   0  0  0  0  0  0  0  0  0  0  0  0
   -4.4656   -6.3545    0.0000 C   0  0  0  0  0  0  0  0  0  0  0  0
   -4.8781   -5.6400    0.0000 N   0  0  0  0  0  0  0  0  0  0  0  0
   -4.3260   -5.0269    0.0000 C   0  0  0  0  0  0  0  0  0  0  0  0
   -3.5724   -5.3625    0.0000 N   0  0  0  0  0  0  0  0  0  0  0  0
   -2.8579   -4.9500    0.0000 C   0  0  0  0  0  0  0  0  0  0  0  0
   -2.8579   -4.1250    0.0000 C   0  0  0  0  0  0  0  0  0  0  0  0
   -2.1434   -3.7125    0.0000 C   0  0  0  0  0  0  0  0  0  0  0  0
   -2.1434   -2.8875    0.0000 Cl  0  0  0  0  0  0  0  0  0  0  0  0
   -1.4289   -4.1250    0.0000 C   0  0  0  0  0  0  0  0  0  0  0  0
   -0.7145   -3.7125    0.0000 C   0  0  0  0  0  0  0  0  0  0  0  0
    0.0000   -4.1250    0.0000 O   0  0  0  0  0  0  0  0  0  0  0  0
   -0.7145   -2.8875    0.0000 N   0  0  0  0  0  0  0  0  0  0  0  0
    0.0000   -2.4750    0.0000 C   0  0  0  0  0  0  0  0  0  0  0  0
    0.0000   -1.6500    0.0000 C   0  0  1  0  0  0  0  0  0  0  0  0
   -0.7145   -1.2375    0.0000 C   0  0  0  0  0  0  0  0  0  0  0  0
   -1.4289   -1.6500    0.0000 C   0  0  0  0  0  0  0  0  0  0  0  0
   -2.1434   -1.2375    0.0000 C   0  0  0  0  0  0  0  0  0  0  0  0
   -2.1434   -0.4125    0.0000 C   0  0  0  0  0  0  0  0  0  0  0  0
   -1.4289   -0.0000    0.0000 C   0  0  0  0  0  0  0  0  0  0  0  0
   -1.4289    0.8250    0.0000 F   0  0  0  0  0  0  0  0  0  0  0  0
   -0.7145   -0.4125    0.0000 C   0  0  0  0  0  0  0  0  0  0  0  0
    0.7145   -1.2375    0.0000 C   0  0  0  0  0  0  0  0  0  0  0  0
    0.7145   -0.4125    0.0000 C   0  0  0  0  0  0  0  0  0  0  0  0
    1.4289    0.0000    0.0000 C   0  0  0  0  0  0  0  0  0  0  0  0
    2.1434   -0.4125    0.0000 C   0  0  0  0  0  0  0  0  0  0  0  0
    2.8579    0.0000    0.0000 C   0  0  0  0  0  0  0  0  0  0  0  0
    2.8579    0.8250    0.0000 C   0  0  0  0  0  0  0  0  0  0  0  0
    3.5724   -0.4125    0.0000 C   0  0  0  0  0  0  0  0  0  0  0  0
    3.5724   -1.2375    0.0000 C   0  0  0  0  0  0  0  0  0  0  0  0
    2.8579   -1.6500    0.0000 C   0  0  0  0  0  0  0  0  0  0  0  0
    2.8579   -2.4750    0.0000 F   0  0  0  0  0  0  0  0  0  0  0  0
    2.1434   -1.2375    0.0000 C   0  0  0  0  0  0  0  0  0  0  0  0
    1.4289   -1.6500    0.0000 N   0  0  0  0  0  0  0  0  0  0  0  0
   -1.4289   -4.9500    0.0000 C   0  0  0  0  0  0  0  0  0  0  0  0
   -0.7145   -5.3625    0.0000 Cl  0  0  0  0  0  0  0  0  0  0  0  0
   -2.1434   -5.3625    0.0000 C   0  0  0  0  0  0  0  0  0  0  0  0
   -3.6586   -6.1830    0.0000 N   0  0  0  0  0  0  0  0  0  0  0  0
  1  2  1  0  0  0  0
  2  3  4  0  0  0  0
  3  4  4  0  0  0  0
  4  5  4  0  0  0  0
  5  6  1  0  0  0  0
  6  7  4  0  0  0  0
  7  8  4  0  0  0  0
  8  9  1  0  0  0  0
  8 10  4  0  0  0  0
 10 11  1  0  0  0  0
 11 12  2  0  0  0  0
 11 13  1  0  0  0  0
 13 14  1  0  0  0  0
 14 15  1  0  0  0  0
 15 16  1  0  0  0  0
 16 17  4  0  0  0  0
 17 18  4  0  0  0  0
 18 19  4  0  0  0  0
 19 20  4  0  0  0  0
 20 21  1  0  0  0  0
 20 22  4  0  0  0  0
 16 22  4  0  0  0  0
 15 23  1  1  0  0  0
 23 24  4  0  0  0  0
 24 25  4  0  0  0  0
 25 26  4  0  0  0  0
 26 27  4  0  0  0  0
 27 28  1  0  0  0  0
 27 29  4  0  0  0  0
 29 30  4  0  0  0  0
 30 31  4  0  0  0  0
 31 32  1  0  0  0  0
 31 33  4  0  0  0  0
 26 33  4  0  0  0  0
 33 34  4  0  0  0  0
 23 34  4  0  0  0  0
 10 35  4  0  0  0  0
 35 36  1  0  0  0  0
 35 37  4  0  0  0  0
  6 37  4  0  0  0  0
  5 38  4  0  0  0  0
  2 38  4  0  0  0  0
M  END
>  <CdId>
358540

>  <Mol Weight>
552.402

>  <Formula>
C28H21Cl2F2N5O

>  <cmpd_chemblid>
CHEMBL3627901

>  <std_type>
Ki

>  <std_value>
10.4

>  <std_unit>
nM

>  <target_id>
CHEMBL2016

>  <target_name>
Coagulation factor IX

>  <organism>
Homo sapiens

>  <target_type>
SINGLE PROTEIN

$$$$

  Mrv0541 08052111042D          

 48 54  0  0  1  0            999 V2000
    3.9849    3.9849    0.0000 C   0  0  0  0  0  0  0  0  0  0  0  0
    4.3974    3.2704    0.0000 C   0  0  2  0  0  0  0  0  0  0  0  0
    5.2224    3.2704    0.0000 C   0  0  0  0  0  0  0  0  0  0  0  0
    5.6349    2.5559    0.0000 C   0  0  0  0  0  0  0  0  0  0  0  0
    6.4599    2.5559    0.0000 C   0  0  0  0  0  0  0  0  0  0  0  0
    6.8724    1.8414    0.0000 C   0  0  2  0  0  0  0  0  0  0  0  0
    7.6974    1.8414    0.0000 N   0  0  0  0  0  0  0  0  0  0  0  0
    8.1099    2.5559    0.0000 C   0  0  0  0  0  0  0  0  0  0  0  0
    8.9349    2.5559    0.0000 C   0  0  0  0  0  0  0  0  0  0  0  0
    9.3474    1.8414    0.0000 C   0  0  0  0  0  0  0  0  0  0  0  0
   10.1724    1.8414    0.0000 C   0  0  0  0  0  0  0  0  0  0  0  0
   10.5849    2.5559    0.0000 C   0  0  0  0  0  0  0  0  0  0  0  0
   10.1724    3.2704    0.0000 F   0  0  0  0  0  0  0  0  0  0  0  0
   11.4099    2.5559    0.0000 C   0  0  0  0  0  0  0  0  0  0  0  0
   11.8224    1.8414    0.0000 C   0  0  0  0  0  0  0  0  0  0  0  0
   11.4099    1.1270    0.0000 C   0  0  0  0  0  0  0  0  0  0  0  0
   11.8224    0.4125    0.0000 Cl  0  0  0  0  0  0  0  0  0  0  0  0
   10.5849    1.1270    0.0000 C   0  0  0  0  0  0  0  0  0  0  0  0
   10.1724    0.4125    0.0000 F   0  0  0  0  0  0  0  0  0  0  0  0
    8.9349    1.1270    0.0000 C   0  0  0  0  0  0  0  0  0  0  0  0
    8.1099    1.1270    0.0000 C   0  0  0  0  0  0  0  0  0  0  0  0
    7.6974    0.4125    0.0000 O   0  0  0  0  0  0  0  0  0  0  0  0
    6.4599    1.1270    0.0000 C   0  0  0  0  0  0  0  0  0  0  0  0
    5.6349    1.1270    0.0000 C   0  0  0  0  0  0  0  0  0  0  0  0
    5.2224    0.4125    0.0000 C   0  0  0  0  0  0  0  0  0  0  0  0
    5.6349   -0.3020    0.0000 C   0  0  0  0  0  0  0  0  0  0  0  0
    6.4599   -0.3020    0.0000 C   0  0  0  0  0  0  0  0  0  0  0  0
    6.8724    0.4125    0.0000 N   0  0  0  0  0  0  0  0  0  0  0  0
    4.3974    0.4125    0.0000 C   0  0  0  0  0  0  0  0  0  0  0  0
    3.9849   -0.3020    0.0000 C   0  0  0  0  0  0  0  0  0  0  0  0
    3.1599   -0.3020    0.0000 C   0  0  0  0  0  0  0  0  0  0  0  0
    2.7474    0.4125    0.0000 C   0  0  0  0  0  0  0  0  0  0  0  0
    1.9224    0.4125    0.0000 N   0  0  0  0  0  0  0  0  0  0  0  0
    1.5099   -0.3020    0.0000 C   0  0  0  0  0  0  0  0  0  0  0  0
    1.8454   -1.0556    0.0000 N   0  0  0  0  0  0  0  0  0  0  0  0
    1.2323   -1.6077    0.0000 N   0  0  0  0  0  0  0  0  0  0  0  0
    0.5178   -1.1952    0.0000 C   0  0  0  0  0  0  0  0  0  0  0  0
   -0.2358   -1.5307    0.0000 C   0  0  0  0  0  0  0  0  0  0  0  0
   -0.4074   -2.3377    0.0000 C   0  0  0  0  0  0  0  0  0  0  0  0
   -1.2278   -2.4239    0.0000 C   0  0  0  0  0  0  0  0  0  0  0  0
   -1.5634   -1.6703    0.0000 C   0  0  0  0  0  0  0  0  0  0  0  0
   -0.9503   -1.1182    0.0000 O   0  0  0  0  0  0  0  0  0  0  0  0
    0.6894   -0.3882    0.0000 O   0  0  0  0  0  0  0  0  0  0  0  0
    3.1599    1.1270    0.0000 C   0  0  0  0  0  0  0  0  0  0  0  0
    3.9849    1.1270    0.0000 C   0  0  0  0  0  0  0  0  0  0  0  0
    4.3974    1.8414    0.0000 N   0  0  0  0  0  0  0  0  0  0  0  0
    3.9849    2.5559    0.0000 C   0  0  0  0  0  0  0  0  0  0  0  0
    3.1599    2.5559    0.0000 O   0  0  0  0  0  0  0  0  0  0  0  0
  2  1  1  6  0  0  0
  2  3  1  0  0  0  0
  3  4  1  0  0  0  0
  4  5  1  0  0  0  0
  5  6  1  0  0  0  0
  6  7  1  6  0  0  0
  7  8  1  0  0  0  0
  8  9  1  0  0  0  0
  9 10  1  0  0  0  0
 10 11  1  0  0  0  0
 11 12  4  0  0  0  0
 12 13  1  0  0  0  0
 12 14  4  0  0  0  0
 14 15  4  0  0  0  0
 15 16  4  0  0  0  0
 16 17  1  0  0  0  0
 16 18  4  0  0  0  0
 11 18  4  0  0  0  0
 18 19  1  0  0  0  0
 10 20  2  0  0  0  0
 20 21  1  0  0  0  0
  7 21  1  0  0  0  0
 21 22  2  0  0  0  0
  6 23  1  0  0  0  0
 23 24  4  0  0  0  0
 24 25  4  0  0  0  0
 25 26  4  0  0  0  0
 26 27  4  0  0  0  0
 27 28  4  0  0  0  0
 23 28  4  0  0  0  0
 25 29  1  0  0  0  0
 29 30  4  0  0  0  0
 30 31  4  0  0  0  0
 31 32  4  0  0  0  0
 32 33  1  0  0  0  0
 33 34  1  0  0  0  0
 34 35  4  0  0  0  0
 35 36  4  0  0  0  0
 36 37  4  0  0  0  0
 37 38  1  0  0  0  0
 38 39  4  0  0  0  0
 39 40  4  0  0  0  0
 40 41  4  0  0  0  0
 41 42  4  0  0  0  0
 38 42  4  0  0  0  0
 37 43  4  0  0  0  0
 34 43  4  0  0  0  0
 32 44  4  0  0  0  0
 44 45  4  0  0  0  0
 29 45  4  0  0  0  0
 45 46  1  0  0  0  0
 46 47  1  0  0  0  0
  2 47  1  0  0  0  0
 47 48  2  0  0  0  0
M  END
>  <CdId>
358541

>  <Mol Weight>
671.092

>  <Formula>
C35H29ClF2N6O4

>  <cmpd_chemblid>
CHEMBL4113531

>  <std_type>
Ki

>  <std_value>
6.13

>  <std_unit>
nM

>  <target_id>
CHEMBL2016

>  <target_name>
Coagulation factor IX

>  <organism>
Homo sapiens

>  <target_type>
SINGLE PROTEIN

$$$$

  Mrv0541 08052111042D          

 37 40  0  0  1  0            999 V2000
   -5.4883   -1.0047    0.0000 C   0  0  0  0  0  0  0  0  0  0  0  0
   -4.6678   -0.9185    0.0000 C   0  0  0  0  0  0  0  0  0  0  0  0
   -4.3323   -0.1648    0.0000 C   0  0  0  0  0  0  0  0  0  0  0  0
   -3.5118   -0.0785    0.0000 C   0  0  0  0  0  0  0  0  0  0  0  0
   -3.1762    0.6751    0.0000 S   0  0  0  0  0  0  0  0  0  0  0  0
   -3.9299    1.0107    0.0000 O   0  0  0  0  0  0  0  0  0  0  0  0
   -2.4225    0.3396    0.0000 O   0  0  0  0  0  0  0  0  0  0  0  0
   -2.8407    1.4288    0.0000 N   0  0  0  0  0  0  0  0  0  0  0  0
   -2.0202    1.5150    0.0000 C   0  0  1  0  0  0  0  0  0  0  0  0
   -1.6077    2.2295    0.0000 C   0  0  0  0  0  0  0  0  0  0  0  0
   -0.8007    2.0580    0.0000 C   0  0  0  0  0  0  0  0  0  0  0  0
   -0.7145    1.2375    0.0000 N   0  0  0  0  0  0  0  0  0  0  0  0
    0.0000    0.8250    0.0000 C   0  0  2  0  0  0  0  0  0  0  0  0
    0.0000    0.0000    0.0000 C   0  0  0  0  0  0  0  0  0  0  0  0
    0.7145   -0.4125    0.0000 C   0  0  0  0  0  0  0  0  0  0  0  0
    1.4289    0.0000    0.0000 C   0  0  0  0  0  0  0  0  0  0  0  0
    2.1434   -0.4125    0.0000 C   0  0  0  0  0  0  0  0  0  0  0  0
    2.8579    0.0000    0.0000 C   0  0  0  0  0  0  0  0  0  0  0  0
    3.5724   -0.4125    0.0000 C   0  0  0  0  0  0  0  0  0  0  0  0
    3.5724   -1.2375    0.0000 N   0  0  0  0  0  0  0  0  0  0  0  0
    2.8579   -1.6500    0.0000 C   0  0  0  0  0  0  0  0  0  0  0  0
    2.8579   -2.4750    0.0000 N   0  0  0  0  0  0  0  0  0  0  0  0
    2.1434   -1.2375    0.0000 C   0  0  0  0  0  0  0  0  0  0  0  0
    1.4289   -1.6500    0.0000 C   0  0  0  0  0  0  0  0  0  0  0  0
    0.7145   -1.2375    0.0000 C   0  0  0  0  0  0  0  0  0  0  0  0
    0.0000   -1.6500    0.0000 Cl  0  0  0  0  0  0  0  0  0  0  0  0
    0.7145    1.2375    0.0000 C   0  0  0  0  0  0  0  0  0  0  0  0
    0.7145    2.0625    0.0000 O   0  0  0  0  0  0  0  0  0  0  0  0
    1.4289    0.8250    0.0000 O   0  0  0  0  0  0  0  0  0  0  0  0
   -1.4681    0.9019    0.0000 C   0  0  0  0  0  0  0  0  0  0  0  0
   -1.6397    0.0950    0.0000 O   0  0  0  0  0  0  0  0  0  0  0  0
   -3.0269   -0.7460    0.0000 C   0  0  0  0  0  0  0  0  0  0  0  0
   -3.3624   -1.4997    0.0000 N   0  0  0  0  0  0  0  0  0  0  0  0
   -4.1829   -1.5859    0.0000 C   0  0  0  0  0  0  0  0  0  0  0  0
   -4.5184   -2.3396    0.0000 N   0  0  0  0  0  0  0  0  0  0  0  0
   -4.0335   -3.0070    0.0000 C   0  0  0  0  0  0  0  0  0  0  0  0
   -5.3389   -2.4258    0.0000 C   0  0  0  0  0  0  0  0  0  0  0  0
  1  2  1  0  0  0  0
  2  3  4  0  0  0  0
  3  4  4  0  0  0  0
  4  5  1  0  0  0  0
  5  6  2  0  0  0  0
  5  7  2  0  0  0  0
  5  8  1  0  0  0  0
  9  8  1  1  0  0  0
  9 10  1  0  0  0  0
 10 11  1  0  0  0  0
 11 12  1  0  0  0  0
 13 12  1  1  0  0  0
 13 14  1  0  0  0  0
 14 15  1  0  0  0  0
 15 16  4  0  0  0  0
 16 17  4  0  0  0  0
 17 18  4  0  0  0  0
 18 19  4  0  0  0  0
 19 20  4  0  0  0  0
 20 21  4  0  0  0  0
 21 22  1  0  0  0  0
 21 23  4  0  0  0  0
 17 23  4  0  0  0  0
 23 24  4  0  0  0  0
 24 25  4  0  0  0  0
 15 25  4  0  0  0  0
 25 26  1  0  0  0  0
 13 27  1  0  0  0  0
 27 28  2  0  0  0  0
 27 29  1  0  0  0  0
 12 30  1  0  0  0  0
  9 30  1  0  0  0  0
 30 31  2  0  0  0  0
  4 32  4  0  0  0  0
 32 33  4  0  0  0  0
 33 34  4  0  0  0  0
  2 34  4  0  0  0  0
 34 35  1  0  0  0  0
 35 36  1  0  0  0  0
 35 37  1  0  0  0  0
M  END
>  <CdId>
358542

>  <Mol Weight>
547.026

>  <Formula>
C24H27ClN6O5S

>  <cmpd_chemblid>
CHEMBL3911675

>  <std_type>
Ki

>  <std_value>
115.0

>  <std_unit>
nM

>  <target_id>
CHEMBL2016

>  <target_name>
Coagulation factor IX

>  <organism>
Homo sapiens

>  <target_type>
SINGLE PROTEIN

$$$$

  Mrv0541 08052111042D          

 37 41  0  0  0  0            999 V2000
    4.2010   -5.1401    0.0000 N   0  0  0  0  0  0  0  0  0  0  0  0
    3.3760   -5.1401    0.0000 C   0  0  0  0  0  0  0  0  0  0  0  0
    2.9635   -4.4256    0.0000 N   0  0  0  0  0  0  0  0  0  0  0  0
    2.9635   -5.8546    0.0000 C   0  0  0  0  0  0  0  0  0  0  0  0
    3.3760   -6.5690    0.0000 C   0  0  0  0  0  0  0  0  0  0  0  0
    2.9635   -7.2835    0.0000 C   0  0  0  0  0  0  0  0  0  0  0  0
    2.1385   -7.2835    0.0000 C   0  0  0  0  0  0  0  0  0  0  0  0
    1.7260   -6.5690    0.0000 C   0  0  0  0  0  0  0  0  0  0  0  0
    0.9010   -6.5690    0.0000 N   0  0  0  0  0  0  0  0  0  0  0  0
    0.4161   -7.2365    0.0000 N   0  0  0  0  0  0  0  0  0  0  0  0
   -0.3686   -6.9815    0.0000 C   0  0  0  0  0  0  0  0  0  0  0  0
   -1.0360   -7.4664    0.0000 C   0  0  0  0  0  0  0  0  0  0  0  0
   -1.7034   -7.9514    0.0000 F   0  0  0  0  0  0  0  0  0  0  0  0
   -1.5209   -6.7990    0.0000 F   0  0  0  0  0  0  0  0  0  0  0  0
   -0.5511   -8.1339    0.0000 F   0  0  0  0  0  0  0  0  0  0  0  0
   -0.3686   -6.1565    0.0000 C   0  0  0  0  0  0  0  0  0  0  0  0
    0.4161   -5.9016    0.0000 C   0  0  0  0  0  0  0  0  0  0  0  0
    0.6710   -5.1170    0.0000 C   0  0  0  0  0  0  0  0  0  0  0  0
    1.4780   -4.9454    0.0000 O   0  0  0  0  0  0  0  0  0  0  0  0
    0.1190   -4.5039    0.0000 N   0  0  0  0  0  0  0  0  0  0  0  0
    0.3739   -3.7192    0.0000 C   0  0  0  0  0  0  0  0  0  0  0  0
   -0.1781   -3.1062    0.0000 C   0  0  0  0  0  0  0  0  0  0  0  0
    0.0768   -2.3215    0.0000 C   0  0  0  0  0  0  0  0  0  0  0  0
    0.8838   -2.1500    0.0000 C   0  0  0  0  0  0  0  0  0  0  0  0
    1.1387   -1.3654    0.0000 N   0  0  0  0  0  0  0  0  0  0  0  0
    0.6538   -0.6979    0.0000 C   0  0  0  0  0  0  0  0  0  0  0  0
    1.1387   -0.0305    0.0000 N   0  0  0  0  0  0  0  0  0  0  0  0
    1.9233   -0.2854    0.0000 C   0  0  0  0  0  0  0  0  0  0  0  0
    2.6378    0.1271    0.0000 N   0  0  0  0  0  0  0  0  0  0  0  0
    3.3523   -0.2854    0.0000 C   0  0  0  0  0  0  0  0  0  0  0  0
    3.3523   -1.1104    0.0000 C   0  0  0  0  0  0  0  0  0  0  0  0
    2.6378   -1.5229    0.0000 C   0  0  0  0  0  0  0  0  0  0  0  0
    1.9233   -1.1104    0.0000 C   0  0  0  0  0  0  0  0  0  0  0  0
    1.4358   -2.7631    0.0000 C   0  0  0  0  0  0  0  0  0  0  0  0
    1.1809   -3.5477    0.0000 C   0  0  0  0  0  0  0  0  0  0  0  0
    1.7329   -4.1608    0.0000 F   0  0  0  0  0  0  0  0  0  0  0  0
    2.1385   -5.8546    0.0000 C   0  0  0  0  0  0  0  0  0  0  0  0
  1  2  2  0  0  0  0
  2  3  1  0  0  0  0
  2  4  1  0  0  0  0
  4  5  4  0  0  0  0
  5  6  4  0  0  0  0
  6  7  4  0  0  0  0
  7  8  4  0  0  0  0
  8  9  1  0  0  0  0
  9 10  4  0  0  0  0
 10 11  4  0  0  0  0
 11 12  1  0  0  0  0
 12 13  1  0  0  0  0
 12 14  1  0  0  0  0
 12 15  1  0  0  0  0
 11 16  4  0  0  0  0
 16 17  4  0  0  0  0
  9 17  4  0  0  0  0
 17 18  1  0  0  0  0
 18 19  2  0  0  0  0
 18 20  1  0  0  0  0
 20 21  1  0  0  0  0
 21 22  4  0  0  0  0
 22 23  4  0  0  0  0
 23 24  4  0  0  0  0
 24 25  1  0  0  0  0
 25 26  4  0  0  0  0
 26 27  4  0  0  0  0
 27 28  4  0  0  0  0
 28 29  4  0  0  0  0
 29 30  4  0  0  0  0
 30 31  4  0  0  0  0
 31 32  4  0  0  0  0
 32 33  4  0  0  0  0
 28 33  4  0  0  0  0
 25 33  4  0  0  0  0
 24 34  4  0  0  0  0
 34 35  4  0  0  0  0
 21 35  4  0  0  0  0
 35 36  1  0  0  0  0
  8 37  4  0  0  0  0
  4 37  4  0  0  0  0
M  END
>  <CdId>
358543

>  <Mol Weight>
508.4305

>  <Formula>
C24H16F4N8O

>  <cmpd_chemblid>
CHEMBL185301

>  <std_type>
Ki

>  <std_value>
7.9

>  <std_unit>
nM

>  <target_id>
CHEMBL2016

>  <target_name>
Coagulation factor IX

>  <organism>
Homo sapiens

>  <target_type>
SINGLE PROTEIN

$$$$

  Mrv0541 08052111042D          

 40 45  0  0  1  0            999 V2000
    3.9849    3.9849    0.0000 C   0  0  0  0  0  0  0  0  0  0  0  0
    4.3974    3.2704    0.0000 C   0  0  2  0  0  0  0  0  0  0  0  0
    5.2224    3.2704    0.0000 C   0  0  0  0  0  0  0  0  0  0  0  0
    5.6349    2.5559    0.0000 C   0  0  0  0  0  0  0  0  0  0  0  0
    6.4599    2.5559    0.0000 C   0  0  0  0  0  0  0  0  0  0  0  0
    6.8724    1.8414    0.0000 C   0  0  2  0  0  0  0  0  0  0  0  0
    7.6974    1.8414    0.0000 N   0  0  0  0  0  0  0  0  0  0  0  0
    8.1099    2.5559    0.0000 C   0  0  0  0  0  0  0  0  0  0  0  0
    8.9349    2.5559    0.0000 C   0  0  0  0  0  0  0  0  0  0  0  0
    9.3474    1.8414    0.0000 C   0  0  0  0  0  0  0  0  0  0  0  0
   10.1724    1.8414    0.0000 C   0  0  0  0  0  0  0  0  0  0  0  0
   10.5849    2.5559    0.0000 C   0  0  0  0  0  0  0  0  0  0  0  0
   11.4099    2.5559    0.0000 C   0  0  0  0  0  0  0  0  0  0  0  0
   11.8224    3.2704    0.0000 Cl  0  0  0  0  0  0  0  0  0  0  0  0
   11.8224    1.8414    0.0000 C   0  0  0  0  0  0  0  0  0  0  0  0
   11.4099    1.1270    0.0000 C   0  0  0  0  0  0  0  0  0  0  0  0
   10.5849    1.1270    0.0000 C   0  0  0  0  0  0  0  0  0  0  0  0
   10.1724    0.4125    0.0000 N   0  0  0  0  0  0  0  0  0  0  0  0
   10.5079   -0.3412    0.0000 C   0  0  0  0  0  0  0  0  0  0  0  0
    9.8948   -0.8932    0.0000 N   0  0  0  0  0  0  0  0  0  0  0  0
    9.1803   -0.4807    0.0000 C   0  0  0  0  0  0  0  0  0  0  0  0
    9.3519    0.3263    0.0000 N   0  0  0  0  0  0  0  0  0  0  0  0
    8.9349    1.1270    0.0000 C   0  0  0  0  0  0  0  0  0  0  0  0
    8.1099    1.1270    0.0000 C   0  0  0  0  0  0  0  0  0  0  0  0
    7.6974    0.4125    0.0000 O   0  0  0  0  0  0  0  0  0  0  0  0
    6.4599    1.1270    0.0000 C   0  0  0  0  0  0  0  0  0  0  0  0
    5.6349    1.1270    0.0000 C   0  0  0  0  0  0  0  0  0  0  0  0
    5.2224    0.4125    0.0000 C   0  0  0  0  0  0  0  0  0  0  0  0
    5.6349   -0.3020    0.0000 C   0  0  0  0  0  0  0  0  0  0  0  0
    6.4599   -0.3020    0.0000 C   0  0  0  0  0  0  0  0  0  0  0  0
    6.8724    0.4125    0.0000 N   0  0  0  0  0  0  0  0  0  0  0  0
    4.3974    0.4125    0.0000 C   0  0  0  0  0  0  0  0  0  0  0  0
    3.9849   -0.3020    0.0000 C   0  0  0  0  0  0  0  0  0  0  0  0
    3.1599   -0.3020    0.0000 C   0  0  0  0  0  0  0  0  0  0  0  0
    2.7474    0.4125    0.0000 C   0  0  0  0  0  0  0  0  0  0  0  0
    3.1599    1.1270    0.0000 C   0  0  0  0  0  0  0  0  0  0  0  0
    3.9849    1.1270    0.0000 C   0  0  0  0  0  0  0  0  0  0  0  0
    4.3974    1.8414    0.0000 N   0  0  0  0  0  0  0  0  0  0  0  0
    3.9849    2.5559    0.0000 C   0  0  0  0  0  0  0  0  0  0  0  0
    3.1599    2.5559    0.0000 O   0  0  0  0  0  0  0  0  0  0  0  0
  2  1  1  6  0  0  0
  2  3  1  0  0  0  0
  3  4  1  0  0  0  0
  4  5  1  0  0  0  0
  5  6  1  0  0  0  0
  6  7  1  6  0  0  0
  7  8  1  0  0  0  0
  8  9  1  0  0  0  0
  9 10  1  0  0  0  0
 10 11  1  0  0  0  0
 11 12  4  0  0  0  0
 12 13  4  0  0  0  0
 13 14  1  0  0  0  0
 13 15  4  0  0  0  0
 15 16  4  0  0  0  0
 16 17  4  0  0  0  0
 11 17  4  0  0  0  0
 17 18  1  0  0  0  0
 18 19  4  0  0  0  0
 19 20  4  0  0  0  0
 20 21  4  0  0  0  0
 21 22  4  0  0  0  0
 18 22  4  0  0  0  0
 10 23  2  0  0  0  0
 23 24  1  0  0  0  0
  7 24  1  0  0  0  0
 24 25  2  0  0  0  0
  6 26  1  0  0  0  0
 26 27  4  0  0  0  0
 27 28  4  0  0  0  0
 28 29  4  0  0  0  0
 29 30  4  0  0  0  0
 30 31  4  0  0  0  0
 26 31  4  0  0  0  0
 28 32  1  0  0  0  0
 32 33  4  0  0  0  0
 33 34  4  0  0  0  0
 34 35  4  0  0  0  0
 35 36  4  0  0  0  0
 36 37  4  0  0  0  0
 32 37  4  0  0  0  0
 37 38  1  0  0  0  0
 38 39  1  0  0  0  0
  2 39  1  0  0  0  0
 39 40  2  0  0  0  0
M  END
>  <CdId>
358544

>  <Mol Weight>
553.054

>  <Formula>
C31H29ClN6O2

>  <cmpd_chemblid>
CHEMBL4114271

>  <std_type>
Ki

>  <std_value>
1.68

>  <std_unit>
nM

>  <target_id>
CHEMBL2016

>  <target_name>
Coagulation factor IX

>  <organism>
Homo sapiens

>  <target_type>
SINGLE PROTEIN

$$$$

  Mrv0541 08052111042D          

 31 35  0  0  1  0            999 V2000
    0.8838   -2.1500    0.0000 N   0  0  0  0  0  0  0  0  0  0  0  0
    1.1387   -1.3654    0.0000 C   0  0  0  0  0  0  0  0  0  0  0  0
    0.6538   -0.6979    0.0000 N   0  0  0  0  0  0  0  0  0  0  0  0
    1.1387   -0.0305    0.0000 O   0  0  0  0  0  0  0  0  0  0  0  0
    1.9233   -0.2854    0.0000 C   0  0  0  0  0  0  0  0  0  0  0  0
    2.6378    0.1271    0.0000 C   0  0  0  0  0  0  0  0  0  0  0  0
    2.6378    0.9521    0.0000 N   0  0  0  0  0  0  0  0  0  0  0  0
    1.9704    1.4370    0.0000 C   0  0  0  0  0  0  0  0  0  0  0  0
    2.2253    2.2216    0.0000 C   0  0  0  0  0  0  0  0  0  0  0  0
    3.0503    2.2216    0.0000 C   0  0  1  0  0  0  0  0  0  0  0  0
    3.5352    2.8890    0.0000 N   0  0  0  0  0  0  0  0  0  0  0  0
    3.1997    3.6427    0.0000 C   0  0  0  0  0  0  0  0  0  0  0  0
    2.3792    3.7290    0.0000 O   0  0  0  0  0  0  0  0  0  0  0  0
    3.6846    4.3102    0.0000 C   0  0  0  0  0  0  0  0  0  0  0  0
    3.3490    5.0638    0.0000 C   0  0  0  0  0  0  0  0  0  0  0  0
    3.8340    5.7313    0.0000 C   0  0  0  0  0  0  0  0  0  0  0  0
    4.6544    5.6450    0.0000 C   0  0  0  0  0  0  0  0  0  0  0  0
    5.1394    6.3125    0.0000 N   0  0  0  0  0  0  0  0  0  0  0  0
    4.8844    7.0971    0.0000 C   0  0  0  0  0  0  0  0  0  0  0  0
    5.5519    7.5820    0.0000 N   0  0  0  0  0  0  0  0  0  0  0  0
    6.2193    7.0971    0.0000 N   0  0  0  0  0  0  0  0  0  0  0  0
    5.9644    6.3125    0.0000 C   0  0  0  0  0  0  0  0  0  0  0  0
    4.9900    4.8914    0.0000 C   0  0  0  0  0  0  0  0  0  0  0  0
    4.5051    4.2239    0.0000 C   0  0  0  0  0  0  0  0  0  0  0  0
    4.8406    3.4702    0.0000 Cl  0  0  0  0  0  0  0  0  0  0  0  0
    3.3053    1.4370    0.0000 C   0  0  0  0  0  0  0  0  0  0  0  0
    3.3523   -0.2854    0.0000 C   0  0  0  0  0  0  0  0  0  0  0  0
    3.3523   -1.1104    0.0000 C   0  0  0  0  0  0  0  0  0  0  0  0
    2.6378   -1.5229    0.0000 C   0  0  0  0  0  0  0  0  0  0  0  0
    2.6378   -2.3479    0.0000 Cl  0  0  0  0  0  0  0  0  0  0  0  0
    1.9233   -1.1104    0.0000 C   0  0  0  0  0  0  0  0  0  0  0  0
  1  2  1  0  0  0  0
  2  3  4  0  0  0  0
  3  4  4  0  0  0  0
  4  5  4  0  0  0  0
  5  6  4  0  0  0  0
  6  7  1  0  0  0  0
  7  8  1  0  0  0  0
  8  9  1  0  0  0  0
  9 10  1  0  0  0  0
 10 11  1  1  0  0  0
 11 12  1  0  0  0  0
 12 13  2  0  0  0  0
 12 14  1  0  0  0  0
 14 15  4  0  0  0  0
 15 16  4  0  0  0  0
 16 17  4  0  0  0  0
 17 18  1  0  0  0  0
 18 19  4  0  0  0  0
 19 20  4  0  0  0  0
 20 21  4  0  0  0  0
 21 22  4  0  0  0  0
 18 22  4  0  0  0  0
 17 23  4  0  0  0  0
 23 24  4  0  0  0  0
 14 24  4  0  0  0  0
 24 25  1  0  0  0  0
 10 26  1  0  0  0  0
  7 26  1  0  0  0  0
  6 27  4  0  0  0  0
 27 28  4  0  0  0  0
 28 29  4  0  0  0  0
 29 30  1  0  0  0  0
 29 31  4  0  0  0  0
  2 31  4  0  0  0  0
  5 31  4  0  0  0  0
M  END
>  <CdId>
358545

>  <Mol Weight>
458.301

>  <Formula>
C20H17Cl2N7O2

>  <cmpd_chemblid>
CHEMBL4080361

>  <std_type>
Ki

>  <std_value>
16.0

>  <std_unit>
nM

>  <target_id>
CHEMBL2016

>  <target_name>
Coagulation factor IX

>  <organism>
Homo sapiens

>  <target_type>
SINGLE PROTEIN

$$$$

  Mrv0541 08052111042D          

 39 43  0  0  1  0            999 V2000
    3.9849    3.9849    0.0000 C   0  0  0  0  0  0  0  0  0  0  0  0
    4.3974    3.2704    0.0000 C   0  0  2  0  0  0  0  0  0  0  0  0
    5.2224    3.2704    0.0000 C   0  0  0  0  0  0  0  0  0  0  0  0
    5.6349    2.5559    0.0000 C   0  0  0  0  0  0  0  0  0  0  0  0
    6.4599    2.5559    0.0000 C   0  0  0  0  0  0  0  0  0  0  0  0
    6.8724    1.8414    0.0000 C   0  0  2  0  0  0  0  0  0  0  0  0
    7.6974    1.8414    0.0000 N   0  0  0  0  0  0  0  0  0  0  0  0
    8.1099    2.5559    0.0000 C   0  0  0  0  0  0  0  0  0  0  0  0
    8.9349    2.5559    0.0000 C   0  0  0  0  0  0  0  0  0  0  0  0
    9.3474    1.8414    0.0000 C   0  0  0  0  0  0  0  0  0  0  0  0
   10.1724    1.8414    0.0000 C   0  0  0  0  0  0  0  0  0  0  0  0
   10.5849    2.5559    0.0000 C   0  0  0  0  0  0  0  0  0  0  0  0
   10.1724    3.2704    0.0000 F   0  0  0  0  0  0  0  0  0  0  0  0
   11.4099    2.5559    0.0000 C   0  0  0  0  0  0  0  0  0  0  0  0
   11.8224    1.8414    0.0000 C   0  0  0  0  0  0  0  0  0  0  0  0
   11.4099    1.1270    0.0000 C   0  0  0  0  0  0  0  0  0  0  0  0
   11.8224    0.4125    0.0000 Cl  0  0  0  0  0  0  0  0  0  0  0  0
   10.5849    1.1270    0.0000 C   0  0  0  0  0  0  0  0  0  0  0  0
   10.1724    0.4125    0.0000 F   0  0  0  0  0  0  0  0  0  0  0  0
    8.9349    1.1270    0.0000 C   0  0  0  0  0  0  0  0  0  0  0  0
    8.1099    1.1270    0.0000 C   0  0  0  0  0  0  0  0  0  0  0  0
    7.6974    0.4125    0.0000 O   0  0  0  0  0  0  0  0  0  0  0  0
    6.4599    1.1270    0.0000 C   0  0  0  0  0  0  0  0  0  0  0  0
    5.6349    1.1270    0.0000 C   0  0  0  0  0  0  0  0  0  0  0  0
    5.2224    0.4125    0.0000 C   0  0  0  0  0  0  0  0  0  0  0  0
    5.6349   -0.3020    0.0000 C   0  0  0  0  0  0  0  0  0  0  0  0
    6.4599   -0.3020    0.0000 C   0  0  0  0  0  0  0  0  0  0  0  0
    6.8724    0.4125    0.0000 N   0  0  0  0  0  0  0  0  0  0  0  0
    4.3974    0.4125    0.0000 C   0  0  0  0  0  0  0  0  0  0  0  0
    3.9849   -0.3020    0.0000 C   0  0  0  0  0  0  0  0  0  0  0  0
    3.1599   -0.3020    0.0000 C   0  0  0  0  0  0  0  0  0  0  0  0
    2.7474   -1.0164    0.0000 Br  0  0  0  0  0  0  0  0  0  0  0  0
    2.7474    0.4125    0.0000 C   0  0  0  0  0  0  0  0  0  0  0  0
    1.9224    0.4125    0.0000 N   0  0  0  0  0  0  0  0  0  0  0  0
    3.1599    1.1270    0.0000 C   0  0  0  0  0  0  0  0  0  0  0  0
    3.9849    1.1270    0.0000 C   0  0  0  0  0  0  0  0  0  0  0  0
    4.3974    1.8414    0.0000 N   0  0  0  0  0  0  0  0  0  0  0  0
    3.9849    2.5559    0.0000 C   0  0  0  0  0  0  0  0  0  0  0  0
    3.1599    2.5559    0.0000 O   0  0  0  0  0  0  0  0  0  0  0  0
  2  1  1  6  0  0  0
  2  3  1  0  0  0  0
  3  4  1  0  0  0  0
  4  5  1  0  0  0  0
  5  6  1  0  0  0  0
  6  7  1  6  0  0  0
  7  8  1  0  0  0  0
  8  9  1  0  0  0  0
  9 10  1  0  0  0  0
 10 11  1  0  0  0  0
 11 12  4  0  0  0  0
 12 13  1  0  0  0  0
 12 14  4  0  0  0  0
 14 15  4  0  0  0  0
 15 16  4  0  0  0  0
 16 17  1  0  0  0  0
 16 18  4  0  0  0  0
 11 18  4  0  0  0  0
 18 19  1  0  0  0  0
 10 20  2  0  0  0  0
 20 21  1  0  0  0  0
  7 21  1  0  0  0  0
 21 22  2  0  0  0  0
  6 23  1  0  0  0  0
 23 24  4  0  0  0  0
 24 25  4  0  0  0  0
 25 26  4  0  0  0  0
 26 27  4  0  0  0  0
 27 28  4  0  0  0  0
 23 28  4  0  0  0  0
 25 29  1  0  0  0  0
 29 30  4  0  0  0  0
 30 31  4  0  0  0  0
 31 32  1  0  0  0  0
 31 33  4  0  0  0  0
 33 34  1  0  0  0  0
 33 35  4  0  0  0  0
 35 36  4  0  0  0  0
 29 36  4  0  0  0  0
 36 37  1  0  0  0  0
 37 38  1  0  0  0  0
  2 38  1  0  0  0  0
 38 39  2  0  0  0  0
M  END
>  <CdId>
358547

>  <Mol Weight>
615.896

>  <Formula>
C29H26BrClF2N4O2

>  <cmpd_chemblid>
CHEMBL4114450

>  <std_type>
Ki

>  <std_value>
1.02

>  <std_unit>
nM

>  <target_id>
CHEMBL2016

>  <target_name>
Coagulation factor IX

>  <organism>
Homo sapiens

>  <target_type>
SINGLE PROTEIN

$$$$

  Mrv0541 08052111042D          

 42 46  0  0  1  0            999 V2000
    7.9579   -3.3953    0.0000 C   0  0  0  0  0  0  0  0  0  0  0  0
    7.5249   -2.6931    0.0000 O   0  0  0  0  0  0  0  0  0  0  0  0
    6.7002   -2.7170    0.0000 C   0  0  0  0  0  0  0  0  0  0  0  0
    6.3086   -3.4431    0.0000 O   0  0  0  0  0  0  0  0  0  0  0  0
    6.2672   -2.0147    0.0000 N   0  0  0  0  0  0  0  0  0  0  0  0
    5.4425   -2.0386    0.0000 C   0  0  0  0  0  0  0  0  0  0  0  0
    5.0095   -1.3364    0.0000 C   0  0  0  0  0  0  0  0  0  0  0  0
    4.1849   -1.3603    0.0000 C   0  0  0  0  0  0  0  0  0  0  0  0
    3.7932   -2.0864    0.0000 C   0  0  0  0  0  0  0  0  0  0  0  0
    4.2262   -2.7886    0.0000 C   0  0  0  0  0  0  0  0  0  0  0  0
    5.0509   -2.7647    0.0000 C   0  0  0  0  0  0  0  0  0  0  0  0
    5.0479   -3.1211    0.0000 C   0  0  0  0  0  0  0  0  0  0  0  0
    5.7353   -2.6649    0.0000 O   0  0  0  0  0  0  0  0  0  0  0  0
    5.0360   -3.9460    0.0000 N   0  0  0  0  0  0  0  0  0  0  0  0
    4.2478   -4.1895    0.0000 C   0  0  0  0  0  0  0  0  0  0  0  0
    3.7519   -4.9440    0.0000 C   0  0  0  0  0  0  0  0  0  0  0  0
    2.9270   -4.9320    0.0000 C   0  0  0  0  0  0  0  0  0  0  0  0
    2.5248   -4.2117    0.0000 C   0  0  0  0  0  0  0  0  0  0  0  0
    1.6999   -4.1997    0.0000 C   0  0  0  0  0  0  0  0  0  0  0  0
    1.2978   -3.4794    0.0000 C   0  0  2  0  0  0  0  0  0  0  0  0
    0.4729   -3.4674    0.0000 N   0  0  0  0  0  0  0  0  0  0  0  0
    0.0501   -4.1758    0.0000 C   0  0  0  0  0  0  0  0  0  0  0  0
   -0.7748   -4.1639    0.0000 C   0  0  0  0  0  0  0  0  0  0  0  0
   -1.1769   -3.4435    0.0000 C   0  0  0  0  0  0  0  0  0  0  0  0
   -2.0018   -3.4316    0.0000 C   0  0  0  0  0  0  0  0  0  0  0  0
   -2.4246   -4.1400    0.0000 C   0  0  0  0  0  0  0  0  0  0  0  0
   -2.0225   -4.8604    0.0000 F   0  0  0  0  0  0  0  0  0  0  0  0
   -3.2495   -4.1281    0.0000 C   0  0  0  0  0  0  0  0  0  0  0  0
   -3.6517   -3.4077    0.0000 C   0  0  0  0  0  0  0  0  0  0  0  0
   -3.2289   -2.6993    0.0000 C   0  0  0  0  0  0  0  0  0  0  0  0
   -3.6310   -1.9789    0.0000 Cl  0  0  0  0  0  0  0  0  0  0  0  0
   -2.4040   -2.7112    0.0000 C   0  0  0  0  0  0  0  0  0  0  0  0
   -1.9812   -2.0028    0.0000 F   0  0  0  0  0  0  0  0  0  0  0  0
   -0.7541   -2.7351    0.0000 C   0  0  0  0  0  0  0  0  0  0  0  0
    0.0708   -2.7470    0.0000 C   0  0  0  0  0  0  0  0  0  0  0  0
    0.4936   -2.0386    0.0000 O   0  0  0  0  0  0  0  0  0  0  0  0
    1.7206   -2.7709    0.0000 C   0  0  0  0  0  0  0  0  0  0  0  0
    2.5455   -2.7829    0.0000 C   0  0  0  0  0  0  0  0  0  0  0  0
    2.9683   -2.0744    0.0000 C   0  0  0  0  0  0  0  0  0  0  0  0
    2.5662   -1.3541    0.0000 C   0  0  0  0  0  0  0  0  0  0  0  0
    1.7413   -1.3421    0.0000 C   0  0  0  0  0  0  0  0  0  0  0  0
    1.3185   -2.0506    0.0000 N   0  0  0  0  0  0  0  0  0  0  0  0
  1  2  1  0  0  0  0
  2  3  1  0  0  0  0
  3  4  2  0  0  0  0
  3  5  1  0  0  0  0
  5  6  1  0  0  0  0
  6  7  4  0  0  0  0
  7  8  4  0  0  0  0
  8  9  4  0  0  0  0
  9 10  4  0  0  0  0
 10 11  4  0  0  0  0
  6 11  4  0  0  0  0
 10 12  1  0  0  0  0
 12 13  2  0  0  0  0
 12 14  1  0  0  0  0
 14 15  1  0  0  0  0
 15 16  1  0  0  0  0
 16 17  1  0  0  0  0
 17 18  1  0  0  0  0
 18 19  1  0  0  0  0
 19 20  1  0  0  0  0
 20 21  1  6  0  0  0
 21 22  1  0  0  0  0
 22 23  1  0  0  0  0
 23 24  1  0  0  0  0
 24 25  1  0  0  0  0
 25 26  4  0  0  0  0
 26 27  1  0  0  0  0
 26 28  4  0  0  0  0
 28 29  4  0  0  0  0
 29 30  4  0  0  0  0
 30 31  1  0  0  0  0
 30 32  4  0  0  0  0
 25 32  4  0  0  0  0
 32 33  1  0  0  0  0
 24 34  2  0  0  0  0
 34 35  1  0  0  0  0
 21 35  1  0  0  0  0
 35 36  2  0  0  0  0
 20 37  1  0  0  0  0
 37 38  4  0  0  0  0
 38 39  4  0  0  0  0
  9 39  1  0  0  0  0
 39 40  4  0  0  0  0
 40 41  4  0  0  0  0
 41 42  4  0  0  0  0
 37 42  4  0  0  0  0
M  END
>  <CdId>
358548

>  <Mol Weight>
595.036

>  <Formula>
C31H29ClF2N4O4

>  <cmpd_chemblid>
CHEMBL3927413

>  <std_type>
Ki

>  <std_value>
25.62

>  <std_unit>
nM

>  <target_id>
CHEMBL2016

>  <target_name>
Coagulation factor IX

>  <organism>
Homo sapiens

>  <target_type>
SINGLE PROTEIN

$$$$

  Mrv0541 08052111042D          

 37 40  0  0  0  0            999 V2000
   -1.6166   -5.0850    0.0000 C   0  0  0  0  0  0  0  0  0  0  0  0
   -2.2296   -4.5330    0.0000 C   0  0  0  0  0  0  0  0  0  0  0  0
   -3.0366   -4.7045    0.0000 N   0  0  0  0  0  0  0  0  0  0  0  0
   -3.4491   -3.9900    0.0000 N   0  0  0  0  0  0  0  0  0  0  0  0
   -4.2696   -3.9038    0.0000 C   0  0  0  0  0  0  0  0  0  0  0  0
   -2.8971   -3.3769    0.0000 C   0  0  0  0  0  0  0  0  0  0  0  0
   -3.0686   -2.5700    0.0000 C   0  0  0  0  0  0  0  0  0  0  0  0
   -3.8532   -2.3150    0.0000 N   0  0  0  0  0  0  0  0  0  0  0  0
   -4.0248   -1.5081    0.0000 C   0  0  0  0  0  0  0  0  0  0  0  0
   -4.8094   -1.2531    0.0000 C   0  0  0  0  0  0  0  0  0  0  0  0
   -3.4117   -0.9560    0.0000 C   0  0  0  0  0  0  0  0  0  0  0  0
   -2.1434   -3.7125    0.0000 C   0  0  0  0  0  0  0  0  0  0  0  0
   -1.4289   -3.3000    0.0000 N   0  0  0  0  0  0  0  0  0  0  0  0
   -0.7145   -3.7125    0.0000 C   0  0  0  0  0  0  0  0  0  0  0  0
   -0.7145   -4.5375    0.0000 O   0  0  0  0  0  0  0  0  0  0  0  0
    0.0000   -3.3000    0.0000 O   0  0  0  0  0  0  0  0  0  0  0  0
    0.7145   -3.7125    0.0000 C   0  0  0  0  0  0  0  0  0  0  0  0
    1.4289   -3.3000    0.0000 C   0  0  0  0  0  0  0  0  0  0  0  0
    2.1434   -3.7125    0.0000 O   0  0  0  0  0  0  0  0  0  0  0  0
    2.8579   -3.3000    0.0000 C   0  0  0  0  0  0  0  0  0  0  0  0
    2.8579   -2.4750    0.0000 C   0  0  0  0  0  0  0  0  0  0  0  0
    3.5724   -2.0625    0.0000 C   0  0  0  0  0  0  0  0  0  0  0  0
    4.2868   -2.4750    0.0000 C   0  0  0  0  0  0  0  0  0  0  0  0
    4.2868   -3.3000    0.0000 C   0  0  0  0  0  0  0  0  0  0  0  0
    4.8999   -3.8520    0.0000 S   0  0  0  0  0  0  0  0  0  0  0  0
    4.5644   -4.6057    0.0000 C   0  0  0  0  0  0  0  0  0  0  0  0
    4.9769   -5.3202    0.0000 C   0  0  0  0  0  0  0  0  0  0  0  0
    5.8019   -5.3202    0.0000 N   0  0  0  0  0  0  0  0  0  0  0  0
    4.5644   -6.0346    0.0000 N   0  0  0  0  0  0  0  0  0  0  0  0
    3.7439   -4.5195    0.0000 C   0  0  0  0  0  0  0  0  0  0  0  0
    3.5724   -3.7125    0.0000 C   0  0  0  0  0  0  0  0  0  0  0  0
    1.4289   -2.4750    0.0000 C   0  0  0  0  0  0  0  0  0  0  0  0
    0.7145   -2.0625    0.0000 C   0  0  0  0  0  0  0  0  0  0  0  0
    0.7145   -1.2375    0.0000 C   0  0  0  0  0  0  0  0  0  0  0  0
    1.4289   -0.8250    0.0000 C   0  0  0  0  0  0  0  0  0  0  0  0
    2.1434   -1.2375    0.0000 C   0  0  0  0  0  0  0  0  0  0  0  0
    2.1434   -2.0625    0.0000 C   0  0  0  0  0  0  0  0  0  0  0  0
  1  2  1  0  0  0  0
  2  3  4  0  0  0  0
  3  4  4  0  0  0  0
  4  5  1  0  0  0  0
  4  6  4  0  0  0  0
  6  7  1  0  0  0  0
  7  8  1  0  0  0  0
  8  9  1  0  0  0  0
  9 10  1  0  0  0  0
  9 11  1  0  0  0  0
  6 12  4  0  0  0  0
  2 12  4  0  0  0  0
 12 13  1  0  0  0  0
 13 14  1  0  0  0  0
 14 15  2  0  0  0  0
 14 16  1  0  0  0  0
 16 17  1  0  0  0  0
 17 18  1  0  0  0  0
 18 19  1  0  0  0  0
 19 20  1  0  0  0  0
 20 21  4  0  0  0  0
 21 22  4  0  0  0  0
 22 23  4  0  0  0  0
 23 24  4  0  0  0  0
 24 25  4  0  0  0  0
 25 26  4  0  0  0  0
 26 27  1  0  0  0  0
 27 28  2  0  0  0  0
 27 29  1  0  0  0  0
 26 30  4  0  0  0  0
 30 31  4  0  0  0  0
 20 31  4  0  0  0  0
 24 31  4  0  0  0  0
 18 32  1  0  0  0  0
 32 33  4  0  0  0  0
 33 34  4  0  0  0  0
 34 35  4  0  0  0  0
 35 36  4  0  0  0  0
 36 37  4  0  0  0  0
 32 37  4  0  0  0  0
M  END
>  <CdId>
358551

>  <Mol Weight>
520.646

>  <Formula>
C27H32N6O3S

>  <cmpd_chemblid>
CHEMBL604954

>  <std_type>
Ki

>  <std_value>
3.0

>  <std_unit>
nM

>  <target_id>
CHEMBL2016

>  <target_name>
Coagulation factor IX

>  <organism>
Homo sapiens

>  <target_type>
SINGLE PROTEIN

$$$$

  Mrv0541 08052111042D          

 42 46  0  0  1  0            999 V2000
    4.5375   -2.9684    0.0000 C   0  0  0  0  0  0  0  0  0  0  0  0
    4.1250   -2.2539    0.0000 O   0  0  0  0  0  0  0  0  0  0  0  0
    3.3000   -2.2539    0.0000 C   0  0  0  0  0  0  0  0  0  0  0  0
    2.8875   -2.9684    0.0000 O   0  0  0  0  0  0  0  0  0  0  0  0
    2.8875   -1.5395    0.0000 C   0  0  0  0  0  0  0  0  0  0  0  0
    3.3000   -0.8250    0.0000 C   0  0  0  0  0  0  0  0  0  0  0  0
    2.8875   -0.1105    0.0000 C   0  0  0  0  0  0  0  0  0  0  0  0
    2.0625   -0.1105    0.0000 C   0  0  0  0  0  0  0  0  0  0  0  0
    1.6500   -0.8250    0.0000 C   0  0  0  0  0  0  0  0  0  0  0  0
    2.0625   -1.5395    0.0000 C   0  0  0  0  0  0  0  0  0  0  0  0
    0.8250   -0.8250    0.0000 C   0  0  0  0  0  0  0  0  0  0  0  0
    0.4125   -1.5395    0.0000 C   0  0  0  0  0  0  0  0  0  0  0  0
   -0.4125   -1.5395    0.0000 C   0  0  0  0  0  0  0  0  0  0  0  0
   -0.8250   -0.8250    0.0000 C   0  0  0  0  0  0  0  0  0  0  0  0
   -0.4125   -0.1105    0.0000 C   0  0  0  0  0  0  0  0  0  0  0  0
    0.4125   -0.1105    0.0000 C   0  0  0  0  0  0  0  0  0  0  0  0
   -0.8250    0.6039    0.0000 C   0  0  1  0  0  0  0  0  0  0  0  0
   -1.6500    0.6039    0.0000 N   0  0  0  0  0  0  0  0  0  0  0  0
   -2.0625   -0.1105    0.0000 C   0  0  0  0  0  0  0  0  0  0  0  0
   -2.8875   -0.1105    0.0000 C   0  0  0  0  0  0  0  0  0  0  0  0
   -3.3000    0.6039    0.0000 C   0  0  0  0  0  0  0  0  0  0  0  0
   -4.1250    0.6039    0.0000 C   0  0  0  0  0  0  0  0  0  0  0  0
   -4.5375   -0.1105    0.0000 C   0  0  0  0  0  0  0  0  0  0  0  0
   -4.1250   -0.8250    0.0000 C   0  0  0  0  0  0  0  0  0  0  0  0
   -3.7125   -1.5395    0.0000 N   0  0  0  0  0  0  0  0  0  0  0  0
   -5.3625   -0.1105    0.0000 C   0  0  0  0  0  0  0  0  0  0  0  0
   -5.7750    0.6039    0.0000 C   0  0  0  0  0  0  0  0  0  0  0  0
   -5.3625    1.3184    0.0000 C   0  0  0  0  0  0  0  0  0  0  0  0
   -5.7750    2.0329    0.0000 Cl  0  0  0  0  0  0  0  0  0  0  0  0
   -4.5375    1.3184    0.0000 C   0  0  0  0  0  0  0  0  0  0  0  0
   -4.1250    2.0329    0.0000 F   0  0  0  0  0  0  0  0  0  0  0  0
   -2.8875    1.3184    0.0000 C   0  0  0  0  0  0  0  0  0  0  0  0
   -2.0625    1.3184    0.0000 C   0  0  0  0  0  0  0  0  0  0  0  0
   -1.6500    2.0329    0.0000 O   0  0  0  0  0  0  0  0  0  0  0  0
   -0.4125    1.3184    0.0000 C   0  0  0  0  0  0  0  0  0  0  0  0
    0.4125    1.3184    0.0000 C   0  0  0  0  0  0  0  0  0  0  0  0
    0.8250    2.0329    0.0000 C   0  0  0  0  0  0  0  0  0  0  0  0
    1.6500    2.0329    0.0000 C   0  0  1  0  0  0  0  0  0  0  0  0
    2.0625    2.7474    0.0000 C   0  0  0  0  0  0  0  0  0  0  0  0
    2.0625    1.3184    0.0000 C   0  0  0  0  0  0  0  0  0  0  0  0
    2.8875    1.3184    0.0000 O   0  0  0  0  0  0  0  0  0  0  0  0
    1.6500    0.6039    0.0000 N   0  0  0  0  0  0  0  0  0  0  0  0
  1  2  1  0  0  0  0
  2  3  1  0  0  0  0
  3  4  2  0  0  0  0
  3  5  1  0  0  0  0
  5  6  4  0  0  0  0
  6  7  4  0  0  0  0
  7  8  4  0  0  0  0
  8  9  4  0  0  0  0
  9 10  4  0  0  0  0
  5 10  4  0  0  0  0
  9 11  1  0  0  0  0
 11 12  4  0  0  0  0
 12 13  4  0  0  0  0
 13 14  4  0  0  0  0
 14 15  4  0  0  0  0
 15 16  4  0  0  0  0
 11 16  4  0  0  0  0
 15 17  1  0  0  0  0
 17 18  1  1  0  0  0
 18 19  1  0  0  0  0
 19 20  1  0  0  0  0
 20 21  1  0  0  0  0
 21 22  1  0  0  0  0
 22 23  4  0  0  0  0
 23 24  1  0  0  0  0
 24 25  3  0  0  0  0
 23 26  4  0  0  0  0
 26 27  4  0  0  0  0
 27 28  4  0  0  0  0
 28 29  1  0  0  0  0
 28 30  4  0  0  0  0
 22 30  4  0  0  0  0
 30 31  1  0  0  0  0
 21 32  2  0  0  0  0
 32 33  1  0  0  0  0
 18 33  1  0  0  0  0
 33 34  2  0  0  0  0
 17 35  1  0  0  0  0
 35 36  1  0  0  0  0
 36 37  1  0  0  0  0
 37 38  1  0  0  0  0
 38 39  1  1  0  0  0
 38 40  1  0  0  0  0
 40 41  2  0  0  0  0
 40 42  1  0  0  0  0
  8 42  1  0  0  0  0
M  END
>  <CdId>
358553

>  <Mol Weight>
586.052

>  <Formula>
C33H29ClFN3O4

>  <cmpd_chemblid>
CHEMBL4112216

>  <std_type>
Ki

>  <std_value>
46.6

>  <std_unit>
nM

>  <target_id>
CHEMBL2016

>  <target_name>
Coagulation factor IX

>  <organism>
Homo sapiens

>  <target_type>
SINGLE PROTEIN

$$$$

  Mrv0541 08052111042D          

 36 40  0  0  0  0            999 V2000
   -0.5837    0.0165    0.0000 N   0  0  0  0  0  0  0  0  0  0  0  0
   -0.1712   -0.6979    0.0000 C   0  0  0  0  0  0  0  0  0  0  0  0
   -0.5837   -1.4124    0.0000 N   0  0  0  0  0  0  0  0  0  0  0  0
    0.6538   -0.6979    0.0000 C   0  0  0  0  0  0  0  0  0  0  0  0
    1.1387   -0.0305    0.0000 C   0  0  0  0  0  0  0  0  0  0  0  0
    1.9233   -0.2854    0.0000 C   0  0  0  0  0  0  0  0  0  0  0  0
    2.6378    0.1271    0.0000 C   0  0  0  0  0  0  0  0  0  0  0  0
    2.6378    0.9521    0.0000 O   0  0  0  0  0  0  0  0  0  0  0  0
    3.3523    1.3646    0.0000 C   0  0  0  0  0  0  0  0  0  0  0  0
    4.0668    0.9521    0.0000 C   0  0  0  0  0  0  0  0  0  0  0  0
    4.0668    0.1271    0.0000 O   0  0  0  0  0  0  0  0  0  0  0  0
    4.7812    1.3646    0.0000 N   0  0  0  0  0  0  0  0  0  0  0  0
    5.4957    0.9521    0.0000 C   0  0  0  0  0  0  0  0  0  0  0  0
    6.2102    1.3646    0.0000 C   0  0  0  0  0  0  0  0  0  0  0  0
    6.9246    0.9521    0.0000 C   0  0  0  0  0  0  0  0  0  0  0  0
    6.9246    0.1271    0.0000 C   0  0  0  0  0  0  0  0  0  0  0  0
    7.6391   -0.2854    0.0000 C   0  0  0  0  0  0  0  0  0  0  0  0
    8.3536    0.1271    0.0000 O   0  0  0  0  0  0  0  0  0  0  0  0
    7.6391   -1.1104    0.0000 N   0  0  0  0  0  0  0  0  0  0  0  0
    8.3065   -1.5954    0.0000 C   0  0  0  0  0  0  0  0  0  0  0  0
    8.0516   -2.3800    0.0000 C   0  0  0  0  0  0  0  0  0  0  0  0
    7.2266   -2.3800    0.0000 C   0  0  0  0  0  0  0  0  0  0  0  0
    6.9717   -1.5954    0.0000 C   0  0  0  0  0  0  0  0  0  0  0  0
    6.2102   -0.2854    0.0000 C   0  0  0  0  0  0  0  0  0  0  0  0
    5.4957    0.1271    0.0000 C   0  0  0  0  0  0  0  0  0  0  0  0
    3.3523    2.1896    0.0000 C   0  0  0  0  0  0  0  0  0  0  0  0
    2.6378    2.6021    0.0000 C   0  0  0  0  0  0  0  0  0  0  0  0
    2.6378    3.4271    0.0000 C   0  0  0  0  0  0  0  0  0  0  0  0
    3.3523    3.8396    0.0000 C   0  0  0  0  0  0  0  0  0  0  0  0
    4.0668    3.4271    0.0000 C   0  0  0  0  0  0  0  0  0  0  0  0
    4.0668    2.6021    0.0000 C   0  0  0  0  0  0  0  0  0  0  0  0
    3.3523   -0.2854    0.0000 C   0  0  0  0  0  0  0  0  0  0  0  0
    3.3523   -1.1104    0.0000 C   0  0  0  0  0  0  0  0  0  0  0  0
    2.6378   -1.5229    0.0000 C   0  0  0  0  0  0  0  0  0  0  0  0
    1.9233   -1.1104    0.0000 C   0  0  0  0  0  0  0  0  0  0  0  0
    1.1387   -1.3654    0.0000 S   0  0  0  0  0  0  0  0  0  0  0  0
  1  2  2  0  0  0  0
  2  3  1  0  0  0  0
  2  4  1  0  0  0  0
  4  5  4  0  0  0  0
  5  6  4  0  0  0  0
  6  7  4  0  0  0  0
  7  8  1  0  0  0  0
  8  9  1  0  0  0  0
  9 10  1  0  0  0  0
 10 11  2  0  0  0  0
 10 12  1  0  0  0  0
 12 13  1  0  0  0  0
 13 14  4  0  0  0  0
 14 15  4  0  0  0  0
 15 16  4  0  0  0  0
 16 17  1  0  0  0  0
 17 18  2  0  0  0  0
 17 19  1  0  0  0  0
 19 20  1  0  0  0  0
 20 21  1  0  0  0  0
 21 22  1  0  0  0  0
 22 23  1  0  0  0  0
 19 23  1  0  0  0  0
 16 24  4  0  0  0  0
 24 25  4  0  0  0  0
 13 25  4  0  0  0  0
  9 26  1  0  0  0  0
 26 27  4  0  0  0  0
 27 28  4  0  0  0  0
 28 29  4  0  0  0  0
 29 30  4  0  0  0  0
 30 31  4  0  0  0  0
 26 31  4  0  0  0  0
  7 32  4  0  0  0  0
 32 33  4  0  0  0  0
 33 34  4  0  0  0  0
 34 35  4  0  0  0  0
  6 35  4  0  0  0  0
 35 36  4  0  0  0  0
  4 36  4  0  0  0  0
M  END
>  <CdId>
358554

>  <Mol Weight>
498.596

>  <Formula>
C28H26N4O3S

>  <cmpd_chemblid>
CHEMBL599614

>  <std_type>
Ki

>  <std_value>
290.0

>  <std_unit>
nM

>  <target_id>
CHEMBL2016

>  <target_name>
Coagulation factor IX

>  <organism>
Homo sapiens

>  <target_type>
SINGLE PROTEIN

$$$$

  Mrv0541 08052111042D          

 38 42  0  0  1  0            999 V2000
    3.9849    3.9849    0.0000 C   0  0  0  0  0  0  0  0  0  0  0  0
    4.3974    3.2704    0.0000 C   0  0  2  0  0  0  0  0  0  0  0  0
    5.2224    3.2704    0.0000 C   0  0  0  0  0  0  0  0  0  0  0  0
    5.6349    2.5559    0.0000 C   0  0  0  0  0  0  0  0  0  0  0  0
    6.4599    2.5559    0.0000 C   0  0  0  0  0  0  0  0  0  0  0  0
    6.8724    1.8414    0.0000 C   0  0  2  0  0  0  0  0  0  0  0  0
    7.6974    1.8414    0.0000 N   0  0  0  0  0  0  0  0  0  0  0  0
    8.1099    2.5559    0.0000 C   0  0  0  0  0  0  0  0  0  0  0  0
    8.9349    2.5559    0.0000 C   0  0  0  0  0  0  0  0  0  0  0  0
    9.3474    1.8414    0.0000 C   0  0  0  0  0  0  0  0  0  0  0  0
   10.1724    1.8414    0.0000 C   0  0  0  0  0  0  0  0  0  0  0  0
   10.5849    2.5559    0.0000 C   0  0  0  0  0  0  0  0  0  0  0  0
   11.4099    2.5559    0.0000 C   0  0  0  0  0  0  0  0  0  0  0  0
   11.8224    1.8414    0.0000 C   0  0  0  0  0  0  0  0  0  0  0  0
   11.4099    1.1270    0.0000 C   0  0  0  0  0  0  0  0  0  0  0  0
   11.8224    0.4125    0.0000 Cl  0  0  0  0  0  0  0  0  0  0  0  0
   10.5849    1.1270    0.0000 C   0  0  0  0  0  0  0  0  0  0  0  0
   10.1724    0.4125    0.0000 F   0  0  0  0  0  0  0  0  0  0  0  0
    8.9349    1.1270    0.0000 C   0  0  0  0  0  0  0  0  0  0  0  0
    8.1099    1.1270    0.0000 C   0  0  0  0  0  0  0  0  0  0  0  0
    7.6974    0.4125    0.0000 O   0  0  0  0  0  0  0  0  0  0  0  0
    6.4599    1.1270    0.0000 C   0  0  0  0  0  0  0  0  0  0  0  0
    5.6349    1.1270    0.0000 C   0  0  0  0  0  0  0  0  0  0  0  0
    5.2224    0.4125    0.0000 C   0  0  0  0  0  0  0  0  0  0  0  0
    5.6349   -0.3020    0.0000 C   0  0  0  0  0  0  0  0  0  0  0  0
    6.4599   -0.3020    0.0000 C   0  0  0  0  0  0  0  0  0  0  0  0
    6.8724    0.4125    0.0000 N   0  0  0  0  0  0  0  0  0  0  0  0
    4.3974    0.4125    0.0000 C   0  0  0  0  0  0  0  0  0  0  0  0
    3.9849   -0.3020    0.0000 C   0  0  0  0  0  0  0  0  0  0  0  0
    4.3974   -1.0164    0.0000 F   0  0  0  0  0  0  0  0  0  0  0  0
    3.1599   -0.3020    0.0000 C   0  0  0  0  0  0  0  0  0  0  0  0
    2.7474    0.4125    0.0000 C   0  0  0  0  0  0  0  0  0  0  0  0
    1.9224    0.4125    0.0000 F   0  0  0  0  0  0  0  0  0  0  0  0
    3.1599    1.1270    0.0000 C   0  0  0  0  0  0  0  0  0  0  0  0
    3.9849    1.1270    0.0000 C   0  0  0  0  0  0  0  0  0  0  0  0
    4.3974    1.8414    0.0000 N   0  0  0  0  0  0  0  0  0  0  0  0
    3.9849    2.5559    0.0000 C   0  0  0  0  0  0  0  0  0  0  0  0
    3.1599    2.5559    0.0000 O   0  0  0  0  0  0  0  0  0  0  0  0
  2  1  1  6  0  0  0
  2  3  1  0  0  0  0
  3  4  1  0  0  0  0
  4  5  1  0  0  0  0
  5  6  1  0  0  0  0
  6  7  1  6  0  0  0
  7  8  4  0  0  0  0
  8  9  4  0  0  0  0
  9 10  4  0  0  0  0
 10 11  1  0  0  0  0
 11 12  4  0  0  0  0
 12 13  4  0  0  0  0
 13 14  4  0  0  0  0
 14 15  4  0  0  0  0
 15 16  1  0  0  0  0
 15 17  4  0  0  0  0
 11 17  4  0  0  0  0
 17 18  1  0  0  0  0
 10 19  4  0  0  0  0
 19 20  4  0  0  0  0
  7 20  4  0  0  0  0
 20 21  2  0  0  0  0
  6 22  1  0  0  0  0
 22 23  4  0  0  0  0
 23 24  4  0  0  0  0
 24 25  4  0  0  0  0
 25 26  4  0  0  0  0
 26 27  4  0  0  0  0
 22 27  4  0  0  0  0
 24 28  1  0  0  0  0
 28 29  4  0  0  0  0
 29 30  1  0  0  0  0
 29 31  4  0  0  0  0
 31 32  4  0  0  0  0
 32 33  1  0  0  0  0
 32 34  4  0  0  0  0
 34 35  4  0  0  0  0
 28 35  4  0  0  0  0
 35 36  1  0  0  0  0
 36 37  1  0  0  0  0
  2 37  1  0  0  0  0
 37 38  2  0  0  0  0
M  END
>  <CdId>
358555

>  <Mol Weight>
537.96

>  <Formula>
C29H23ClF3N3O2

>  <cmpd_chemblid>
CHEMBL4110071

>  <std_type>
Ki

>  <std_value>
111.1

>  <std_unit>
nM

>  <target_id>
CHEMBL2016

>  <target_name>
Coagulation factor IX

>  <organism>
Homo sapiens

>  <target_type>
SINGLE PROTEIN

$$$$

  Mrv0541 08052111042D          

 35 38  0  0  1  0            999 V2000
   -5.8466    4.6102    0.0000 C   0  0  0  0  0  0  0  0  0  0  0  0
   -5.6751    3.8032    0.0000 N   0  0  0  0  0  0  0  0  0  0  0  0
   -6.2882    3.2512    0.0000 C   0  0  0  0  0  0  0  0  0  0  0  0
   -4.8904    3.5483    0.0000 C   0  0  0  0  0  0  0  0  0  0  0  0
   -4.2230    4.0332    0.0000 N   0  0  0  0  0  0  0  0  0  0  0  0
   -3.5556    3.5483    0.0000 C   0  0  0  0  0  0  0  0  0  0  0  0
   -3.8105    2.7637    0.0000 C   0  0  0  0  0  0  0  0  0  0  0  0
   -3.3256    2.0962    0.0000 S   0  0  0  0  0  0  0  0  0  0  0  0
   -3.9930    1.6113    0.0000 O   0  0  0  0  0  0  0  0  0  0  0  0
   -2.6581    2.5812    0.0000 O   0  0  0  0  0  0  0  0  0  0  0  0
   -2.8407    1.4288    0.0000 N   0  0  0  0  0  0  0  0  0  0  0  0
   -2.0202    1.5150    0.0000 C   0  0  1  0  0  0  0  0  0  0  0  0
   -1.6077    2.2295    0.0000 C   0  0  0  0  0  0  0  0  0  0  0  0
   -0.8007    2.0580    0.0000 C   0  0  0  0  0  0  0  0  0  0  0  0
   -0.7145    1.2375    0.0000 N   0  0  0  0  0  0  0  0  0  0  0  0
    0.0000    0.8250    0.0000 C   0  0  2  0  0  0  0  0  0  0  0  0
    0.0000    0.0000    0.0000 C   0  0  0  0  0  0  0  0  0  0  0  0
    0.7145   -0.4125    0.0000 C   0  0  0  0  0  0  0  0  0  0  0  0
    1.4289    0.0000    0.0000 C   0  0  0  0  0  0  0  0  0  0  0  0
    2.1434   -0.4125    0.0000 C   0  0  0  0  0  0  0  0  0  0  0  0
    2.8579    0.0000    0.0000 C   0  0  0  0  0  0  0  0  0  0  0  0
    3.5724   -0.4125    0.0000 C   0  0  0  0  0  0  0  0  0  0  0  0
    3.5724   -1.2375    0.0000 N   0  0  0  0  0  0  0  0  0  0  0  0
    2.8579   -1.6500    0.0000 C   0  0  0  0  0  0  0  0  0  0  0  0
    2.8579   -2.4750    0.0000 N   0  0  0  0  0  0  0  0  0  0  0  0
    2.1434   -1.2375    0.0000 C   0  0  0  0  0  0  0  0  0  0  0  0
    1.4289   -1.6500    0.0000 C   0  0  0  0  0  0  0  0  0  0  0  0
    0.7145   -1.2375    0.0000 C   0  0  0  0  0  0  0  0  0  0  0  0
    0.0000   -1.6500    0.0000 Cl  0  0  0  0  0  0  0  0  0  0  0  0
    0.7145    1.2375    0.0000 C   0  0  0  0  0  0  0  0  0  0  0  0
    0.7145    2.0625    0.0000 O   0  0  0  0  0  0  0  0  0  0  0  0
    1.4289    0.8250    0.0000 O   0  0  0  0  0  0  0  0  0  0  0  0
   -1.4681    0.9019    0.0000 C   0  0  0  0  0  0  0  0  0  0  0  0
   -1.6397    0.0950    0.0000 O   0  0  0  0  0  0  0  0  0  0  0  0
   -4.6355    2.7637    0.0000 S   0  0  0  0  0  0  0  0  0  0  0  0
  1  2  1  0  0  0  0
  2  3  1  0  0  0  0
  2  4  1  0  0  0  0
  4  5  4  0  0  0  0
  5  6  4  0  0  0  0
  6  7  4  0  0  0  0
  7  8  1  0  0  0  0
  8  9  2  0  0  0  0
  8 10  2  0  0  0  0
  8 11  1  0  0  0  0
 12 11  1  1  0  0  0
 12 13  1  0  0  0  0
 13 14  1  0  0  0  0
 14 15  1  0  0  0  0
 16 15  1  1  0  0  0
 16 17  1  0  0  0  0
 17 18  1  0  0  0  0
 18 19  4  0  0  0  0
 19 20  4  0  0  0  0
 20 21  4  0  0  0  0
 21 22  4  0  0  0  0
 22 23  4  0  0  0  0
 23 24  4  0  0  0  0
 24 25  1  0  0  0  0
 24 26  4  0  0  0  0
 20 26  4  0  0  0  0
 26 27  4  0  0  0  0
 27 28  4  0  0  0  0
 18 28  4  0  0  0  0
 28 29  1  0  0  0  0
 16 30  1  0  0  0  0
 30 31  2  0  0  0  0
 30 32  1  0  0  0  0
 15 33  1  0  0  0  0
 12 33  1  0  0  0  0
 33 34  2  0  0  0  0
  7 35  4  0  0  0  0
  4 35  4  0  0  0  0
M  END
>  <CdId>
358557

>  <Mol Weight>
539.028

>  <Formula>
C21H23ClN6O5S2

>  <cmpd_chemblid>
CHEMBL3941147

>  <std_type>
Ki

>  <std_value>
80.0

>  <std_unit>
nM

>  <target_id>
CHEMBL2016

>  <target_name>
Coagulation factor IX

>  <organism>
Homo sapiens

>  <target_type>
SINGLE PROTEIN

$$$$

  Mrv0541 08052111042D          

 40 43  0  0  1  0            999 V2000
    0.4944    3.5854    0.0000 C   0  0  0  0  0  0  0  0  0  0  0  0
    1.2089    3.1729    0.0000 O   0  0  0  0  0  0  0  0  0  0  0  0
    1.9233    3.5854    0.0000 C   0  0  0  0  0  0  0  0  0  0  0  0
    1.9233    4.4104    0.0000 C   0  0  0  0  0  0  0  0  0  0  0  0
    2.6378    4.8229    0.0000 C   0  0  0  0  0  0  0  0  0  0  0  0
    3.3523    4.4104    0.0000 C   0  0  0  0  0  0  0  0  0  0  0  0
    4.0668    4.8229    0.0000 C   0  0  0  0  0  0  0  0  0  0  0  0
    4.7812    4.4104    0.0000 C   0  0  0  0  0  0  0  0  0  0  0  0
    5.4957    4.8229    0.0000 C   0  0  0  0  0  0  0  0  0  0  0  0
    5.4957    5.6479    0.0000 C   0  0  0  0  0  0  0  0  0  0  0  0
    6.2102    6.0604    0.0000 C   0  0  0  0  0  0  0  0  0  0  0  0
    6.9246    5.6479    0.0000 O   0  0  0  0  0  0  0  0  0  0  0  0
    6.2102    6.8854    0.0000 N   0  0  0  0  0  0  0  0  0  0  0  0
    6.9246    7.2979    0.0000 C   0  0  2  0  0  0  0  0  0  0  0  0
    6.9246    8.1229    0.0000 C   0  0  0  0  0  0  0  0  0  0  0  0
    7.6391    8.5354    0.0000 O   0  0  0  0  0  0  0  0  0  0  0  0
    7.6391    6.8854    0.0000 C   0  0  0  0  0  0  0  0  0  0  0  0
    8.0516    7.5999    0.0000 C   0  0  0  0  0  0  0  0  0  0  0  0
    7.2266    6.1710    0.0000 C   0  0  0  0  0  0  0  0  0  0  0  0
    8.3536    6.4729    0.0000 C   0  0  0  0  0  0  0  0  0  0  0  0
    4.7812    6.0604    0.0000 C   0  0  0  0  0  0  0  0  0  0  0  0
    4.0668    5.6479    0.0000 C   0  0  0  0  0  0  0  0  0  0  0  0
    3.3523    6.0604    0.0000 C   0  0  0  0  0  0  0  0  0  0  0  0
    2.6378    5.6479    0.0000 O   0  0  0  0  0  0  0  0  0  0  0  0
    3.3523    6.8854    0.0000 O   0  0  0  0  0  0  0  0  0  0  0  0
    3.3523    3.5854    0.0000 C   0  0  0  0  0  0  0  0  0  0  0  0
    4.0668    3.1729    0.0000 C   0  0  0  0  0  0  0  0  0  0  0  0
    4.7812    3.5854    0.0000 O   0  0  0  0  0  0  0  0  0  0  0  0
    4.0668    2.3479    0.0000 N   0  0  0  0  0  0  0  0  0  0  0  0
    3.3523    1.9354    0.0000 C   0  0  0  0  0  0  0  0  0  0  0  0
    3.3523    1.1104    0.0000 C   0  0  0  0  0  0  0  0  0  0  0  0
    2.6378    0.6979    0.0000 C   0  0  0  0  0  0  0  0  0  0  0  0
    1.9233    1.1104    0.0000 C   0  0  0  0  0  0  0  0  0  0  0  0
    1.1387    0.8555    0.0000 N   0  0  0  0  0  0  0  0  0  0  0  0
    0.6538    1.5229    0.0000 C   0  0  0  0  0  0  0  0  0  0  0  0
   -0.1712    1.5229    0.0000 N   0  0  0  0  0  0  0  0  0  0  0  0
    1.1387    2.1904    0.0000 N   0  0  0  0  0  0  0  0  0  0  0  0
    1.9233    1.9354    0.0000 C   0  0  0  0  0  0  0  0  0  0  0  0
    2.6378    2.3479    0.0000 C   0  0  0  0  0  0  0  0  0  0  0  0
    2.6378    3.1729    0.0000 N   0  0  0  0  0  0  0  0  0  0  0  0
  1  2  1  0  0  0  0
  2  3  1  0  0  0  0
  3  4  4  0  0  0  0
  4  5  4  0  0  0  0
  5  6  4  0  0  0  0
  6  7  1  0  0  0  0
  7  8  4  0  0  0  0
  8  9  4  0  0  0  0
  9 10  4  0  0  0  0
 10 11  1  0  0  0  0
 11 12  2  0  0  0  0
 11 13  1  0  0  0  0
 14 13  1  6  0  0  0
 14 15  1  0  0  0  0
 15 16  1  0  0  0  0
 14 17  1  0  0  0  0
 17 18  1  0  0  0  0
 17 19  1  0  0  0  0
 17 20  1  0  0  0  0
 10 21  4  0  0  0  0
 21 22  4  0  0  0  0
  7 22  4  0  0  0  0
 22 23  1  0  0  0  0
 23 24  2  0  0  0  0
 23 25  1  0  0  0  0
  6 26  4  0  0  0  0
 26 27  1  0  0  0  0
 27 28  2  0  0  0  0
 27 29  1  0  0  0  0
 29 30  1  0  0  0  0
 30 31  4  0  0  0  0
 31 32  4  0  0  0  0
 32 33  4  0  0  0  0
 33 34  4  0  0  0  0
 34 35  4  0  0  0  0
 35 36  1  0  0  0  0
 35 37  4  0  0  0  0
 37 38  4  0  0  0  0
 33 38  4  0  0  0  0
 38 39  4  0  0  0  0
 30 39  4  0  0  0  0
 26 40  4  0  0  0  0
  3 40  4  0  0  0  0
M  STY  1   1 DAT
M  SAL   1  1  37
M  SDT   1 MRV_IMPLICIT_H                                        
M  SDD   1     0.0000    0.0000    DR    ALL  0       0  
M  SED   1 IMPL_H1
M  END
>  <CdId>
358559

>  <Mol Weight>
546.5744

>  <Formula>
C28H30N6O6

>  <cmpd_chemblid>
CHEMBL2417908

>  <std_type>
Ki

>  <std_value>
6.5

>  <std_unit>
nM

>  <target_id>
CHEMBL2016

>  <target_name>
Coagulation factor IX

>  <organism>
Homo sapiens

>  <target_type>
SINGLE PROTEIN

$$$$

  Mrv0541 08052111042D          

 44 49  0  0  1  0            999 V2000
    9.1411   -2.7682    0.0000 C   0  0  0  0  0  0  0  0  0  0  0  0
    8.3874   -2.4327    0.0000 C   0  0  0  0  0  0  0  0  0  0  0  0
    7.6729   -2.8452    0.0000 N   0  0  0  0  0  0  0  0  0  0  0  0
    7.0598   -2.2931    0.0000 N   0  0  0  0  0  0  0  0  0  0  0  0
    7.3954   -1.5395    0.0000 C   0  0  0  0  0  0  0  0  0  0  0  0
    6.9829   -0.8250    0.0000 N   0  0  0  0  0  0  0  0  0  0  0  0
    6.1579   -0.8250    0.0000 C   0  0  0  0  0  0  0  0  0  0  0  0
    5.7454   -0.1105    0.0000 C   0  0  0  0  0  0  0  0  0  0  0  0
    4.9204   -0.1105    0.0000 C   0  0  0  0  0  0  0  0  0  0  0  0
    4.5079   -0.8250    0.0000 C   0  0  0  0  0  0  0  0  0  0  0  0
    4.9204   -1.5395    0.0000 C   0  0  0  0  0  0  0  0  0  0  0  0
    5.7454   -1.5395    0.0000 C   0  0  0  0  0  0  0  0  0  0  0  0
    4.5079   -2.2539    0.0000 N   0  0  0  0  0  0  0  0  0  0  0  0
    4.9204   -2.9684    0.0000 C   0  0  0  0  0  0  0  0  0  0  0  0
    5.7454   -2.9684    0.0000 O   0  0  0  0  0  0  0  0  0  0  0  0
    4.5079   -3.6829    0.0000 C   0  0  2  0  0  0  0  0  0  0  0  0
    4.9204   -4.3974    0.0000 C   0  0  0  0  0  0  0  0  0  0  0  0
    3.6829   -3.6829    0.0000 C   0  0  0  0  0  0  0  0  0  0  0  0
    3.2704   -2.9684    0.0000 C   0  0  0  0  0  0  0  0  0  0  0  0
    2.4454   -2.9684    0.0000 C   0  0  0  0  0  0  0  0  0  0  0  0
    2.0329   -2.2539    0.0000 C   0  0  2  0  0  0  0  0  0  0  0  0
    1.2079   -2.2539    0.0000 N   0  0  0  0  0  0  0  0  0  0  0  0
    0.7954   -2.9684    0.0000 C   0  0  0  0  0  0  0  0  0  0  0  0
   -0.0296   -2.9684    0.0000 C   0  0  0  0  0  0  0  0  0  0  0  0
   -0.4421   -2.2539    0.0000 C   0  0  0  0  0  0  0  0  0  0  0  0
   -1.2671   -2.2539    0.0000 C   0  0  0  0  0  0  0  0  0  0  0  0
   -1.6796   -2.9684    0.0000 C   0  0  0  0  0  0  0  0  0  0  0  0
   -1.2671   -3.6829    0.0000 F   0  0  0  0  0  0  0  0  0  0  0  0
   -2.5046   -2.9684    0.0000 C   0  0  0  0  0  0  0  0  0  0  0  0
   -2.9171   -2.2539    0.0000 C   0  0  0  0  0  0  0  0  0  0  0  0
   -2.5046   -1.5395    0.0000 C   0  0  0  0  0  0  0  0  0  0  0  0
   -2.9171   -0.8250    0.0000 Cl  0  0  0  0  0  0  0  0  0  0  0  0
   -1.6796   -1.5395    0.0000 C   0  0  0  0  0  0  0  0  0  0  0  0
   -1.2671   -0.8250    0.0000 F   0  0  0  0  0  0  0  0  0  0  0  0
   -0.0296   -1.5395    0.0000 C   0  0  0  0  0  0  0  0  0  0  0  0
    0.7954   -1.5395    0.0000 C   0  0  0  0  0  0  0  0  0  0  0  0
    1.2079   -0.8250    0.0000 O   0  0  0  0  0  0  0  0  0  0  0  0
    2.4454   -1.5395    0.0000 C   0  0  0  0  0  0  0  0  0  0  0  0
    2.0329   -0.8250    0.0000 C   0  0  0  0  0  0  0  0  0  0  0  0
    2.4454   -0.1105    0.0000 C   0  0  0  0  0  0  0  0  0  0  0  0
    3.2704   -0.1105    0.0000 N   0  0  0  0  0  0  0  0  0  0  0  0
    3.6829   -0.8250    0.0000 C   0  0  0  0  0  0  0  0  0  0  0  0
    3.2704   -1.5395    0.0000 C   0  0  0  0  0  0  0  0  0  0  0  0
    8.2159   -1.6257    0.0000 O   0  0  0  0  0  0  0  0  0  0  0  0
  1  2  1  0  0  0  0
  2  3  4  0  0  0  0
  3  4  4  0  0  0  0
  4  5  4  0  0  0  0
  5  6  1  0  0  0  0
  6  7  1  0  0  0  0
  7  8  4  0  0  0  0
  8  9  4  0  0  0  0
  9 10  4  0  0  0  0
 10 11  4  0  0  0  0
 11 12  4  0  0  0  0
  7 12  4  0  0  0  0
 11 13  1  0  0  0  0
 13 14  1  0  0  0  0
 14 15  2  0  0  0  0
 14 16  1  0  0  0  0
 16 17  1  6  0  0  0
 16 18  1  0  0  0  0
 18 19  1  0  0  0  0
 19 20  1  0  0  0  0
 20 21  1  0  0  0  0
 21 22  1  6  0  0  0
 22 23  1  0  0  0  0
 23 24  1  0  0  0  0
 24 25  1  0  0  0  0
 25 26  1  0  0  0  0
 26 27  4  0  0  0  0
 27 28  1  0  0  0  0
 27 29  4  0  0  0  0
 29 30  4  0  0  0  0
 30 31  4  0  0  0  0
 31 32  1  0  0  0  0
 31 33  4  0  0  0  0
 26 33  4  0  0  0  0
 33 34  1  0  0  0  0
 25 35  2  0  0  0  0
 35 36  1  0  0  0  0
 22 36  1  0  0  0  0
 36 37  2  0  0  0  0
 21 38  1  0  0  0  0
 38 39  4  0  0  0  0
 39 40  4  0  0  0  0
 40 41  4  0  0  0  0
 41 42  4  0  0  0  0
 10 42  1  0  0  0  0
 42 43  4  0  0  0  0
 38 43  4  0  0  0  0
  5 44  4  0  0  0  0
  2 44  4  0  0  0  0
M  END
>  <CdId>
358560

>  <Mol Weight>
619.061

>  <Formula>
C32H29ClF2N6O3

>  <cmpd_chemblid>
CHEMBL4110812

>  <std_type>
Ki

>  <std_value>
0.87

>  <std_unit>
nM

>  <target_id>
CHEMBL2016

>  <target_name>
Coagulation factor IX

>  <organism>
Homo sapiens

>  <target_type>
SINGLE PROTEIN

$$$$

  Mrv0541 08052111042D          

 36 40  0  0  1  0            999 V2000
   10.2968    5.3311    0.0000 C   0  0  0  0  0  0  0  0  0  0  0  0
    9.9613    4.5775    0.0000 C   0  0  0  0  0  0  0  0  0  0  0  0
   10.3738    3.8630    0.0000 N   0  0  0  0  0  0  0  0  0  0  0  0
    9.8217    3.2499    0.0000 C   0  0  0  0  0  0  0  0  0  0  0  0
    9.0681    3.5854    0.0000 N   0  0  0  0  0  0  0  0  0  0  0  0
    8.3536    3.1729    0.0000 C   0  0  0  0  0  0  0  0  0  0  0  0
    8.3536    2.3479    0.0000 C   0  0  0  0  0  0  0  0  0  0  0  0
    7.6391    1.9354    0.0000 C   0  0  0  0  0  0  0  0  0  0  0  0
    7.6391    1.1104    0.0000 Cl  0  0  0  0  0  0  0  0  0  0  0  0
    6.9246    2.3479    0.0000 C   0  0  0  0  0  0  0  0  0  0  0  0
    6.2102    1.9354    0.0000 C   0  0  0  0  0  0  0  0  0  0  0  0
    6.2102    1.1104    0.0000 O   0  0  0  0  0  0  0  0  0  0  0  0
    5.4957    2.3479    0.0000 N   0  0  0  0  0  0  0  0  0  0  0  0
    4.7812    1.9354    0.0000 C   0  0  0  0  0  0  0  0  0  0  0  0
    4.0668    2.3479    0.0000 C   0  0  1  0  0  0  0  0  0  0  0  0
    4.0668    3.1729    0.0000 C   0  0  0  0  0  0  0  0  0  0  0  0
    3.3523    3.5854    0.0000 C   0  0  0  0  0  0  0  0  0  0  0  0
    3.3523    4.4104    0.0000 C   0  0  0  0  0  0  0  0  0  0  0  0
    4.0668    4.8229    0.0000 C   0  0  0  0  0  0  0  0  0  0  0  0
    4.7812    4.4104    0.0000 C   0  0  0  0  0  0  0  0  0  0  0  0
    5.4957    4.8229    0.0000 F   0  0  0  0  0  0  0  0  0  0  0  0
    4.7812    3.5854    0.0000 C   0  0  0  0  0  0  0  0  0  0  0  0
    3.3523    1.9354    0.0000 C   0  0  0  0  0  0  0  0  0  0  0  0
    3.3523    1.1104    0.0000 C   0  0  0  0  0  0  0  0  0  0  0  0
    2.6378    0.6979    0.0000 N   0  0  0  0  0  0  0  0  0  0  0  0
    1.9233    1.1104    0.0000 C   0  0  0  0  0  0  0  0  0  0  0  0
    1.1387    0.8555    0.0000 N   0  0  0  0  0  0  0  0  0  0  0  0
    0.6538    1.5229    0.0000 C   0  0  0  0  0  0  0  0  0  0  0  0
   -0.1712    1.5229    0.0000 C   0  0  0  0  0  0  0  0  0  0  0  0
    1.1387    2.1904    0.0000 C   0  0  0  0  0  0  0  0  0  0  0  0
    1.9233    1.9354    0.0000 C   0  0  0  0  0  0  0  0  0  0  0  0
    2.6378    2.3479    0.0000 C   0  0  0  0  0  0  0  0  0  0  0  0
    6.9246    3.1729    0.0000 C   0  0  0  0  0  0  0  0  0  0  0  0
    6.2102    3.5854    0.0000 Cl  0  0  0  0  0  0  0  0  0  0  0  0
    7.6391    3.5854    0.0000 C   0  0  0  0  0  0  0  0  0  0  0  0
    9.1543    4.4059    0.0000 N   0  0  0  0  0  0  0  0  0  0  0  0
  1  2  1  0  0  0  0
  2  3  4  0  0  0  0
  3  4  4  0  0  0  0
  4  5  4  0  0  0  0
  5  6  1  0  0  0  0
  6  7  4  0  0  0  0
  7  8  4  0  0  0  0
  8  9  1  0  0  0  0
  8 10  4  0  0  0  0
 10 11  1  0  0  0  0
 11 12  2  0  0  0  0
 11 13  1  0  0  0  0
 13 14  1  0  0  0  0
 14 15  1  0  0  0  0
 15 16  1  0  0  0  0
 16 17  4  0  0  0  0
 17 18  4  0  0  0  0
 18 19  4  0  0  0  0
 19 20  4  0  0  0  0
 20 21  1  0  0  0  0
 20 22  4  0  0  0  0
 16 22  4  0  0  0  0
 15 23  1  6  0  0  0
 23 24  4  0  0  0  0
 24 25  4  0  0  0  0
 25 26  4  0  0  0  0
 26 27  4  0  0  0  0
 27 28  4  0  0  0  0
 28 29  1  0  0  0  0
 28 30  4  0  0  0  0
 30 31  4  0  0  0  0
 26 31  4  0  0  0  0
 31 32  4  0  0  0  0
 23 32  4  0  0  0  0
 10 33  4  0  0  0  0
 33 34  1  0  0  0  0
 33 35  4  0  0  0  0
  6 35  4  0  0  0  0
  5 36  4  0  0  0  0
  2 36  4  0  0  0  0
M  STY  1   1 DAT
M  SAL   1  1  27
M  SDT   1 MRV_IMPLICIT_H                                        
M  SDD   1     0.0000    0.0000    DR    ALL  0       0  
M  SED   1 IMPL_H1
M  END
>  <CdId>
358561

>  <Mol Weight>
523.389

>  <Formula>
C26H21Cl2FN6O

>  <cmpd_chemblid>
CHEMBL3627898

>  <std_type>
Ki

>  <std_value>
3.7

>  <std_unit>
nM

>  <target_id>
CHEMBL2016

>  <target_name>
Coagulation factor IX

>  <organism>
Homo sapiens

>  <target_type>
SINGLE PROTEIN

$$$$

  Mrv0541 08052111042D          

 34 38  0  0  1  0            999 V2000
    2.7845    0.6979    0.0000 C   0  0  0  0  0  0  0  0  0  0  0  0
    2.0701    1.1104    0.0000 C   0  0  0  0  0  0  0  0  0  0  0  0
    1.3556    0.6979    0.0000 C   0  0  0  0  0  0  0  0  0  0  0  0
    0.6411    1.1104    0.0000 C   0  0  0  0  0  0  0  0  0  0  0  0
   -0.1435    0.8555    0.0000 N   0  0  0  0  0  0  0  0  0  0  0  0
   -0.6284    1.5229    0.0000 C   0  0  0  0  0  0  0  0  0  0  0  0
   -1.4534    1.5229    0.0000 C   0  0  1  0  0  0  0  0  0  0  0  0
   -1.8659    0.8085    0.0000 C   0  0  0  0  0  0  0  0  0  0  0  0
   -2.6909    0.8085    0.0000 N   0  0  0  0  0  0  0  0  0  0  0  0
   -3.1034    0.0940    0.0000 C   0  0  0  0  0  0  0  0  0  0  0  0
   -2.6909   -0.6205    0.0000 O   0  0  0  0  0  0  0  0  0  0  0  0
   -3.9284    0.0940    0.0000 C   0  0  0  0  0  0  0  0  0  0  0  0
   -4.3409   -0.6205    0.0000 C   0  0  0  0  0  0  0  0  0  0  0  0
   -5.1659   -0.6205    0.0000 C   0  0  0  0  0  0  0  0  0  0  0  0
   -5.5784    0.0940    0.0000 C   0  0  0  0  0  0  0  0  0  0  0  0
   -6.4034    0.0940    0.0000 N   0  0  0  0  0  0  0  0  0  0  0  0
   -6.8884   -0.5734    0.0000 C   0  0  0  0  0  0  0  0  0  0  0  0
   -7.6730   -0.3185    0.0000 N   0  0  0  0  0  0  0  0  0  0  0  0
   -7.6730    0.5065    0.0000 N   0  0  0  0  0  0  0  0  0  0  0  0
   -6.8884    0.7614    0.0000 C   0  0  0  0  0  0  0  0  0  0  0  0
   -5.1659    0.8085    0.0000 C   0  0  0  0  0  0  0  0  0  0  0  0
   -4.3409    0.8085    0.0000 C   0  0  0  0  0  0  0  0  0  0  0  0
   -3.9284    1.5229    0.0000 Cl  0  0  0  0  0  0  0  0  0  0  0  0
   -1.8659    2.2374    0.0000 C   0  0  0  0  0  0  0  0  0  0  0  0
   -2.6909    2.2374    0.0000 C   0  0  0  0  0  0  0  0  0  0  0  0
   -3.1034    2.9519    0.0000 C   0  0  0  0  0  0  0  0  0  0  0  0
   -2.6909    3.6664    0.0000 C   0  0  0  0  0  0  0  0  0  0  0  0
   -1.8659    3.6664    0.0000 C   0  0  0  0  0  0  0  0  0  0  0  0
   -1.4534    2.9519    0.0000 C   0  0  0  0  0  0  0  0  0  0  0  0
   -0.1435    2.1904    0.0000 N   0  0  0  0  0  0  0  0  0  0  0  0
    0.6411    1.9354    0.0000 C   0  0  0  0  0  0  0  0  0  0  0  0
    1.3556    2.3479    0.0000 C   0  0  0  0  0  0  0  0  0  0  0  0
    2.0701    1.9354    0.0000 C   0  0  0  0  0  0  0  0  0  0  0  0
    2.7845    2.3479    0.0000 C   0  0  0  0  0  0  0  0  0  0  0  0
  1  2  1  0  0  0  0
  2  3  4  0  0  0  0
  3  4  4  0  0  0  0
  4  5  4  0  0  0  0
  5  6  4  0  0  0  0
  6  7  1  0  0  0  0
  7  8  1  0  0  0  0
  8  9  1  0  0  0  0
  9 10  1  0  0  0  0
 10 11  2  0  0  0  0
 10 12  1  0  0  0  0
 12 13  4  0  0  0  0
 13 14  4  0  0  0  0
 14 15  4  0  0  0  0
 15 16  1  0  0  0  0
 16 17  4  0  0  0  0
 17 18  4  0  0  0  0
 18 19  4  0  0  0  0
 19 20  4  0  0  0  0
 16 20  4  0  0  0  0
 15 21  4  0  0  0  0
 21 22  4  0  0  0  0
 12 22  4  0  0  0  0
 22 23  1  0  0  0  0
  7 24  1  1  0  0  0
 24 25  4  0  0  0  0
 25 26  4  0  0  0  0
 26 27  4  0  0  0  0
 27 28  4  0  0  0  0
 28 29  4  0  0  0  0
 24 29  4  0  0  0  0
  6 30  4  0  0  0  0
 30 31  4  0  0  0  0
  4 31  4  0  0  0  0
 31 32  4  0  0  0  0
 32 33  4  0  0  0  0
  2 33  4  0  0  0  0
 33 34  1  0  0  0  0
M  STY  1   1 DAT
M  SAL   1  1  30
M  SDT   1 MRV_IMPLICIT_H                                        
M  SDD   1     0.0000    0.0000    DR    ALL  0       0  
M  SED   1 IMPL_H1
M  END
>  <CdId>
358562

>  <Mol Weight>
470.953

>  <Formula>
C26H23ClN6O

>  <cmpd_chemblid>
CHEMBL3423058

>  <std_type>
Ki

>  <std_value>
15.85

>  <std_unit>
nM

>  <target_id>
CHEMBL2016

>  <target_name>
Coagulation factor IX

>  <organism>
Homo sapiens

>  <target_type>
SINGLE PROTEIN

$$$$

  Mrv0541 08052111042D          

 41 45  0  0  1  0            999 V2000
    4.5375   -2.9684    0.0000 C   0  0  0  0  0  0  0  0  0  0  0  0
    4.1250   -2.2539    0.0000 O   0  0  0  0  0  0  0  0  0  0  0  0
    3.3000   -2.2539    0.0000 C   0  0  0  0  0  0  0  0  0  0  0  0
    2.8875   -2.9684    0.0000 O   0  0  0  0  0  0  0  0  0  0  0  0
    2.8875   -1.5395    0.0000 C   0  0  0  0  0  0  0  0  0  0  0  0
    3.3000   -0.8250    0.0000 C   0  0  0  0  0  0  0  0  0  0  0  0
    2.8875   -0.1105    0.0000 C   0  0  0  0  0  0  0  0  0  0  0  0
    2.0625   -0.1105    0.0000 C   0  0  0  0  0  0  0  0  0  0  0  0
    1.6500   -0.8250    0.0000 C   0  0  0  0  0  0  0  0  0  0  0  0
    2.0625   -1.5395    0.0000 C   0  0  0  0  0  0  0  0  0  0  0  0
    0.8250   -0.8250    0.0000 C   0  0  0  0  0  0  0  0  0  0  0  0
    0.4125   -1.5395    0.0000 C   0  0  0  0  0  0  0  0  0  0  0  0
   -0.4125   -1.5395    0.0000 C   0  0  0  0  0  0  0  0  0  0  0  0
   -0.8250   -0.8250    0.0000 C   0  0  0  0  0  0  0  0  0  0  0  0
   -0.4125   -0.1105    0.0000 C   0  0  0  0  0  0  0  0  0  0  0  0
    0.4125   -0.1105    0.0000 C   0  0  0  0  0  0  0  0  0  0  0  0
   -0.8250    0.6039    0.0000 C   0  0  2  0  0  0  0  0  0  0  0  0
   -1.6500    0.6039    0.0000 N   0  0  0  0  0  0  0  0  0  0  0  0
   -2.0625   -0.1105    0.0000 C   0  0  0  0  0  0  0  0  0  0  0  0
   -2.8875   -0.1105    0.0000 C   0  0  0  0  0  0  0  0  0  0  0  0
   -3.3000    0.6039    0.0000 C   0  0  0  0  0  0  0  0  0  0  0  0
   -4.1250    0.6039    0.0000 C   0  0  0  0  0  0  0  0  0  0  0  0
   -4.5375   -0.1105    0.0000 C   0  0  0  0  0  0  0  0  0  0  0  0
   -4.1250   -0.8250    0.0000 F   0  0  0  0  0  0  0  0  0  0  0  0
   -5.3625   -0.1105    0.0000 C   0  0  0  0  0  0  0  0  0  0  0  0
   -5.7750    0.6039    0.0000 C   0  0  0  0  0  0  0  0  0  0  0  0
   -5.3625    1.3184    0.0000 C   0  0  0  0  0  0  0  0  0  0  0  0
   -5.7750    2.0329    0.0000 Cl  0  0  0  0  0  0  0  0  0  0  0  0
   -4.5375    1.3184    0.0000 C   0  0  0  0  0  0  0  0  0  0  0  0
   -4.1250    2.0329    0.0000 F   0  0  0  0  0  0  0  0  0  0  0  0
   -2.8875    1.3184    0.0000 C   0  0  0  0  0  0  0  0  0  0  0  0
   -2.0625    1.3184    0.0000 C   0  0  0  0  0  0  0  0  0  0  0  0
   -1.6500    2.0329    0.0000 O   0  0  0  0  0  0  0  0  0  0  0  0
   -0.4125    1.3184    0.0000 C   0  0  0  0  0  0  0  0  0  0  0  0
    0.4125    1.3184    0.0000 C   0  0  0  0  0  0  0  0  0  0  0  0
    0.8250    2.0329    0.0000 C   0  0  0  0  0  0  0  0  0  0  0  0
    1.6500    2.0329    0.0000 C   0  0  1  0  0  0  0  0  0  0  0  0
    2.0625    2.7474    0.0000 C   0  0  0  0  0  0  0  0  0  0  0  0
    2.0625    1.3184    0.0000 C   0  0  0  0  0  0  0  0  0  0  0  0
    2.8875    1.3184    0.0000 O   0  0  0  0  0  0  0  0  0  0  0  0
    1.6500    0.6039    0.0000 N   0  0  0  0  0  0  0  0  0  0  0  0
  1  2  1  0  0  0  0
  2  3  1  0  0  0  0
  3  4  2  0  0  0  0
  3  5  1  0  0  0  0
  5  6  4  0  0  0  0
  6  7  4  0  0  0  0
  7  8  4  0  0  0  0
  8  9  4  0  0  0  0
  9 10  4  0  0  0  0
  5 10  4  0  0  0  0
  9 11  1  0  0  0  0
 11 12  4  0  0  0  0
 12 13  4  0  0  0  0
 13 14  4  0  0  0  0
 14 15  4  0  0  0  0
 15 16  4  0  0  0  0
 11 16  4  0  0  0  0
 15 17  1  0  0  0  0
 17 18  1  6  0  0  0
 18 19  1  0  0  0  0
 19 20  1  0  0  0  0
 20 21  1  0  0  0  0
 21 22  1  0  0  0  0
 22 23  4  0  0  0  0
 23 24  1  0  0  0  0
 23 25  4  0  0  0  0
 25 26  4  0  0  0  0
 26 27  4  0  0  0  0
 27 28  1  0  0  0  0
 27 29  4  0  0  0  0
 22 29  4  0  0  0  0
 29 30  1  0  0  0  0
 21 31  2  0  0  0  0
 31 32  1  0  0  0  0
 18 32  1  0  0  0  0
 32 33  2  0  0  0  0
 17 34  1  0  0  0  0
 34 35  1  0  0  0  0
 35 36  1  0  0  0  0
 36 37  1  0  0  0  0
 37 38  1  1  0  0  0
 37 39  1  0  0  0  0
 39 40  2  0  0  0  0
 39 41  1  0  0  0  0
  8 41  1  0  0  0  0
M  END
>  <CdId>
358564

>  <Mol Weight>
579.033

>  <Formula>
C32H29ClF2N2O4

>  <cmpd_chemblid>
CHEMBL4106857

>  <std_type>
Ki

>  <std_value>
398.2

>  <std_unit>
nM

>  <target_id>
CHEMBL2016

>  <target_name>
Coagulation factor IX

>  <organism>
Homo sapiens

>  <target_type>
SINGLE PROTEIN

$$$$

  Mrv0541 08052111042D          

 40 44  0  0  1  0            999 V2000
    3.9849    3.9849    0.0000 C   0  0  0  0  0  0  0  0  0  0  0  0
    4.3974    3.2704    0.0000 C   0  0  2  0  0  0  0  0  0  0  0  0
    5.2224    3.2704    0.0000 C   0  0  0  0  0  0  0  0  0  0  0  0
    5.6349    2.5559    0.0000 C   0  0  0  0  0  0  0  0  0  0  0  0
    6.4599    2.5559    0.0000 C   0  0  0  0  0  0  0  0  0  0  0  0
    6.8724    1.8414    0.0000 C   0  0  2  0  0  0  0  0  0  0  0  0
    7.6974    1.8414    0.0000 N   0  0  0  0  0  0  0  0  0  0  0  0
    8.1099    2.5559    0.0000 C   0  0  0  0  0  0  0  0  0  0  0  0
    8.9349    2.5559    0.0000 C   0  0  0  0  0  0  0  0  0  0  0  0
    9.3474    1.8414    0.0000 C   0  0  0  0  0  0  0  0  0  0  0  0
   10.1724    1.8414    0.0000 C   0  0  0  0  0  0  0  0  0  0  0  0
   10.5849    2.5559    0.0000 C   0  0  0  0  0  0  0  0  0  0  0  0
   10.1724    3.2704    0.0000 F   0  0  0  0  0  0  0  0  0  0  0  0
   11.4099    2.5559    0.0000 C   0  0  0  0  0  0  0  0  0  0  0  0
   11.8224    1.8414    0.0000 C   0  0  0  0  0  0  0  0  0  0  0  0
   11.4099    1.1270    0.0000 C   0  0  0  0  0  0  0  0  0  0  0  0
   11.8224    0.4125    0.0000 Cl  0  0  0  0  0  0  0  0  0  0  0  0
   10.5849    1.1270    0.0000 C   0  0  0  0  0  0  0  0  0  0  0  0
   10.1724    0.4125    0.0000 F   0  0  0  0  0  0  0  0  0  0  0  0
    8.9349    1.1270    0.0000 C   0  0  0  0  0  0  0  0  0  0  0  0
    8.1099    1.1270    0.0000 C   0  0  0  0  0  0  0  0  0  0  0  0
    7.6974    0.4125    0.0000 O   0  0  0  0  0  0  0  0  0  0  0  0
    6.4599    1.1270    0.0000 C   0  0  0  0  0  0  0  0  0  0  0  0
    6.8724    0.4125    0.0000 C   0  0  0  0  0  0  0  0  0  0  0  0
    6.4599   -0.3020    0.0000 C   0  0  0  0  0  0  0  0  0  0  0  0
    5.6349   -0.3020    0.0000 C   0  0  0  0  0  0  0  0  0  0  0  0
    5.2224    0.4125    0.0000 C   0  0  0  0  0  0  0  0  0  0  0  0
    5.6349    1.1270    0.0000 C   0  0  0  0  0  0  0  0  0  0  0  0
    4.3974    0.4125    0.0000 C   0  0  0  0  0  0  0  0  0  0  0  0
    3.9849   -0.3020    0.0000 C   0  0  0  0  0  0  0  0  0  0  0  0
    3.1599   -0.3020    0.0000 C   0  0  0  0  0  0  0  0  0  0  0  0
    2.7474   -1.0164    0.0000 C   0  0  0  0  0  0  0  0  0  0  0  0
    3.1599   -1.7309    0.0000 O   0  0  0  0  0  0  0  0  0  0  0  0
    1.9224   -1.0164    0.0000 O   0  0  0  0  0  0  0  0  0  0  0  0
    2.7474    0.4125    0.0000 C   0  0  0  0  0  0  0  0  0  0  0  0
    3.1599    1.1270    0.0000 C   0  0  0  0  0  0  0  0  0  0  0  0
    3.9849    1.1270    0.0000 C   0  0  0  0  0  0  0  0  0  0  0  0
    4.3974    1.8414    0.0000 N   0  0  0  0  0  0  0  0  0  0  0  0
    3.9849    2.5559    0.0000 C   0  0  0  0  0  0  0  0  0  0  0  0
    3.1599    2.5559    0.0000 O   0  0  0  0  0  0  0  0  0  0  0  0
  2  1  1  6  0  0  0
  2  3  1  0  0  0  0
  3  4  1  0  0  0  0
  4  5  1  0  0  0  0
  5  6  1  0  0  0  0
  6  7  1  6  0  0  0
  7  8  1  0  0  0  0
  8  9  1  0  0  0  0
  9 10  1  0  0  0  0
 10 11  1  0  0  0  0
 11 12  4  0  0  0  0
 12 13  1  0  0  0  0
 12 14  4  0  0  0  0
 14 15  4  0  0  0  0
 15 16  4  0  0  0  0
 16 17  1  0  0  0  0
 16 18  4  0  0  0  0
 11 18  4  0  0  0  0
 18 19  1  0  0  0  0
 10 20  2  0  0  0  0
 20 21  1  0  0  0  0
  7 21  1  0  0  0  0
 21 22  2  0  0  0  0
  6 23  1  0  0  0  0
 23 24  4  0  0  0  0
 24 25  4  0  0  0  0
 25 26  4  0  0  0  0
 26 27  4  0  0  0  0
 27 28  4  0  0  0  0
 23 28  4  0  0  0  0
 27 29  1  0  0  0  0
 29 30  4  0  0  0  0
 30 31  4  0  0  0  0
 31 32  1  0  0  0  0
 32 33  2  0  0  0  0
 32 34  1  0  0  0  0
 31 35  4  0  0  0  0
 35 36  4  0  0  0  0
 36 37  4  0  0  0  0
 29 37  4  0  0  0  0
 37 38  1  0  0  0  0
 38 39  1  0  0  0  0
  2 39  1  0  0  0  0
 39 40  2  0  0  0  0
M  END
>  <CdId>
358565

>  <Mol Weight>
565.007

>  <Formula>
C31H27ClF2N2O4

>  <cmpd_chemblid>
CHEMBL4113057

>  <std_type>
Ki

>  <std_value>
6.38

>  <std_unit>
nM

>  <target_id>
CHEMBL2016

>  <target_name>
Coagulation factor IX

>  <organism>
Homo sapiens

>  <target_type>
SINGLE PROTEIN

$$$$

  Mrv0541 08052111042D          

 32 35  0  0  0  0            999 V2000
   -5.3649   -1.3480    0.0000 N   0  0  0  0  0  0  0  0  0  0  0  0
   -4.9524   -2.0625    0.0000 C   0  0  0  0  0  0  0  0  0  0  0  0
   -5.3649   -2.7770    0.0000 N   0  0  0  0  0  0  0  0  0  0  0  0
   -4.1274   -2.0625    0.0000 C   0  0  0  0  0  0  0  0  0  0  0  0
   -3.6425   -1.3951    0.0000 C   0  0  0  0  0  0  0  0  0  0  0  0
   -2.8579   -1.6500    0.0000 C   0  0  0  0  0  0  0  0  0  0  0  0
   -2.1434   -1.2375    0.0000 C   0  0  0  0  0  0  0  0  0  0  0  0
   -2.1434   -0.4125    0.0000 O   0  0  0  0  0  0  0  0  0  0  0  0
   -1.4289   -0.0000    0.0000 C   0  0  0  0  0  0  0  0  0  0  0  0
   -0.7145   -0.4125    0.0000 C   0  0  0  0  0  0  0  0  0  0  0  0
    0.0000   -0.0000    0.0000 O   0  0  0  0  0  0  0  0  0  0  0  0
    0.7145   -0.4125    0.0000 C   0  0  0  0  0  0  0  0  0  0  0  0
    0.7145   -1.2375    0.0000 O   0  0  0  0  0  0  0  0  0  0  0  0
    1.4289   -0.0000    0.0000 N   0  0  0  0  0  0  0  0  0  0  0  0
    2.1434   -0.4125    0.0000 C   0  0  0  0  0  0  0  0  0  0  0  0
    2.8579   -0.0000    0.0000 C   0  0  0  0  0  0  0  0  0  0  0  0
    3.5724   -0.4125    0.0000 C   0  0  0  0  0  0  0  0  0  0  0  0
    3.5724   -1.2375    0.0000 C   0  0  0  0  0  0  0  0  0  0  0  0
    2.8579   -1.6500    0.0000 C   0  0  0  0  0  0  0  0  0  0  0  0
    2.8579   -2.4750    0.0000 F   0  0  0  0  0  0  0  0  0  0  0  0
    2.1434   -1.2375    0.0000 C   0  0  0  0  0  0  0  0  0  0  0  0
   -1.4289    0.8250    0.0000 C   0  0  0  0  0  0  0  0  0  0  0  0
   -2.1434    1.2375    0.0000 C   0  0  0  0  0  0  0  0  0  0  0  0
   -2.1434    2.0625    0.0000 C   0  0  0  0  0  0  0  0  0  0  0  0
   -1.4289    2.4750    0.0000 C   0  0  0  0  0  0  0  0  0  0  0  0
   -0.7145    2.0625    0.0000 C   0  0  0  0  0  0  0  0  0  0  0  0
   -0.7145    1.2375    0.0000 C   0  0  0  0  0  0  0  0  0  0  0  0
   -1.4289   -1.6500    0.0000 C   0  0  0  0  0  0  0  0  0  0  0  0
   -1.4289   -2.4750    0.0000 C   0  0  0  0  0  0  0  0  0  0  0  0
   -2.1434   -2.8875    0.0000 C   0  0  0  0  0  0  0  0  0  0  0  0
   -2.8579   -2.4750    0.0000 C   0  0  0  0  0  0  0  0  0  0  0  0
   -3.6425   -2.7299    0.0000 S   0  0  0  0  0  0  0  0  0  0  0  0
  1  2  2  0  0  0  0
  2  3  1  0  0  0  0
  2  4  1  0  0  0  0
  4  5  4  0  0  0  0
  5  6  4  0  0  0  0
  6  7  4  0  0  0  0
  7  8  1  0  0  0  0
  8  9  1  0  0  0  0
  9 10  1  0  0  0  0
 10 11  1  0  0  0  0
 11 12  1  0  0  0  0
 12 13  2  0  0  0  0
 12 14  1  0  0  0  0
 14 15  1  0  0  0  0
 15 16  4  0  0  0  0
 16 17  4  0  0  0  0
 17 18  4  0  0  0  0
 18 19  4  0  0  0  0
 19 20  1  0  0  0  0
 19 21  4  0  0  0  0
 15 21  4  0  0  0  0
  9 22  1  0  0  0  0
 22 23  4  0  0  0  0
 23 24  4  0  0  0  0
 24 25  4  0  0  0  0
 25 26  4  0  0  0  0
 26 27  4  0  0  0  0
 22 27  4  0  0  0  0
  7 28  4  0  0  0  0
 28 29  4  0  0  0  0
 29 30  4  0  0  0  0
 30 31  4  0  0  0  0
  6 31  4  0  0  0  0
 31 32  4  0  0  0  0
  4 32  4  0  0  0  0
M  END
>  <CdId>
358566

>  <Mol Weight>
449.497

>  <Formula>
C24H20FN3O3S

>  <cmpd_chemblid>
CHEMBL597376

>  <std_type>
Ki

>  <std_value>
25.0

>  <std_unit>
nM

>  <target_id>
CHEMBL2016

>  <target_name>
Coagulation factor IX

>  <organism>
Homo sapiens

>  <target_type>
SINGLE PROTEIN

$$$$

  Mrv0541 08052111042D          

 38 42  0  0  1  0            999 V2000
    1.4289   -2.4750    0.0000 N   0  0  0  0  0  0  0  0  0  0  0  0
    1.4289   -1.6500    0.0000 C   0  0  0  0  0  0  0  0  0  0  0  0
    0.7145   -1.2375    0.0000 N   0  0  0  0  0  0  0  0  0  0  0  0
    0.7145   -0.4125    0.0000 C   0  0  0  0  0  0  0  0  0  0  0  0
    1.4289    0.0000    0.0000 C   0  0  0  0  0  0  0  0  0  0  0  0
    2.1434   -0.4125    0.0000 C   0  0  0  0  0  0  0  0  0  0  0  0
    2.8579    0.0000    0.0000 C   0  0  0  0  0  0  0  0  0  0  0  0
    2.8579    0.8250    0.0000 F   0  0  0  0  0  0  0  0  0  0  0  0
    3.5724   -0.4125    0.0000 C   0  0  0  0  0  0  0  0  0  0  0  0
    4.2868   -0.0000    0.0000 C   0  0  0  0  0  0  0  0  0  0  0  0
    5.0013   -0.4125    0.0000 C   0  0  2  0  0  0  0  0  0  0  0  0
    5.0013   -1.2375    0.0000 C   0  0  0  0  0  0  0  0  0  0  0  0
    5.7158   -1.6500    0.0000 O   0  0  0  0  0  0  0  0  0  0  0  0
    4.2868   -1.6500    0.0000 O   0  0  0  0  0  0  0  0  0  0  0  0
    5.7158   -0.0000    0.0000 N   0  0  0  0  0  0  0  0  0  0  0  0
    5.8020    0.8205    0.0000 C   0  0  0  0  0  0  0  0  0  0  0  0
    6.6090    0.9920    0.0000 C   0  0  0  0  0  0  0  0  0  0  0  0
    7.0215    0.2775    0.0000 C   0  0  2  0  0  0  0  0  0  0  0  0
    7.8420    0.1913    0.0000 N   0  0  0  0  0  0  0  0  0  0  0  0
    8.1775   -0.5624    0.0000 S   0  0  0  0  0  0  0  0  0  0  0  0
    7.4238   -0.8979    0.0000 O   0  0  0  0  0  0  0  0  0  0  0  0
    8.9312   -0.2268    0.0000 O   0  0  0  0  0  0  0  0  0  0  0  0
    8.5131   -1.3160    0.0000 C   0  0  0  0  0  0  0  0  0  0  0  0
    9.3336   -1.4023    0.0000 C   0  0  0  0  0  0  0  0  0  0  0  0
    9.6691   -2.1560    0.0000 C   0  0  0  0  0  0  0  0  0  0  0  0
    9.1842   -2.8234    0.0000 C   0  0  0  0  0  0  0  0  0  0  0  0
    9.5197   -3.5771    0.0000 N   0  0  0  0  0  0  0  0  0  0  0  0
   10.3267   -3.7486    0.0000 C   0  0  0  0  0  0  0  0  0  0  0  0
   10.4130   -4.5691    0.0000 C   0  0  0  0  0  0  0  0  0  0  0  0
    9.6593   -4.9046    0.0000 C   0  0  0  0  0  0  0  0  0  0  0  0
    9.1072   -4.2915    0.0000 C   0  0  0  0  0  0  0  0  0  0  0  0
    8.3637   -2.7372    0.0000 N   0  0  0  0  0  0  0  0  0  0  0  0
    8.0281   -1.9835    0.0000 C   0  0  0  0  0  0  0  0  0  0  0  0
    6.4694   -0.3356    0.0000 C   0  0  0  0  0  0  0  0  0  0  0  0
    6.6410   -1.1425    0.0000 O   0  0  0  0  0  0  0  0  0  0  0  0
    3.5724   -1.2375    0.0000 C   0  0  0  0  0  0  0  0  0  0  0  0
    2.8579   -1.6500    0.0000 C   0  0  0  0  0  0  0  0  0  0  0  0
    2.1434   -1.2375    0.0000 C   0  0  0  0  0  0  0  0  0  0  0  0
  1  2  1  0  0  0  0
  2  3  4  0  0  0  0
  3  4  4  0  0  0  0
  4  5  4  0  0  0  0
  5  6  4  0  0  0  0
  6  7  4  0  0  0  0
  7  8  1  0  0  0  0
  7  9  4  0  0  0  0
  9 10  1  0  0  0  0
 10 11  1  0  0  0  0
 11 12  1  0  0  0  0
 12 13  2  0  0  0  0
 12 14  1  0  0  0  0
 11 15  1  1  0  0  0
 15 16  1  0  0  0  0
 16 17  1  0  0  0  0
 17 18  1  0  0  0  0
 18 19  1  6  0  0  0
 19 20  1  0  0  0  0
 20 21  2  0  0  0  0
 20 22  2  0  0  0  0
 20 23  1  0  0  0  0
 23 24  4  0  0  0  0
 24 25  4  0  0  0  0
 25 26  4  0  0  0  0
 26 27  1  0  0  0  0
 27 28  1  0  0  0  0
 28 29  1  0  0  0  0
 29 30  1  0  0  0  0
 30 31  1  0  0  0  0
 27 31  1  0  0  0  0
 26 32  4  0  0  0  0
 32 33  4  0  0  0  0
 23 33  4  0  0  0  0
 18 34  1  0  0  0  0
 15 34  1  0  0  0  0
 34 35  2  0  0  0  0
  9 36  4  0  0  0  0
 36 37  4  0  0  0  0
 37 38  4  0  0  0  0
  2 38  4  0  0  0  0
  6 38  4  0  0  0  0
M  END
>  <CdId>
358567

>  <Mol Weight>
542.582

>  <Formula>
C25H27FN6O5S

>  <cmpd_chemblid>
CHEMBL3943004

>  <std_type>
Ki

>  <std_value>
50.0

>  <std_unit>
nM

>  <target_id>
CHEMBL2016

>  <target_name>
Coagulation factor IX

>  <organism>
Homo sapiens

>  <target_type>
SINGLE PROTEIN

$$$$

  Mrv0541 08052111042D          

 38 43  0  0  1  0            999 V2000
    4.7674    0.7556    0.0000 C   0  0  0  0  0  0  0  0  0  0  0  0
    3.9604    0.5840    0.0000 C   0  0  0  0  0  0  0  0  0  0  0  0
    3.7054   -0.2006    0.0000 C   0  0  0  0  0  0  0  0  0  0  0  0
    2.8985   -0.3721    0.0000 C   0  0  0  0  0  0  0  0  0  0  0  0
    2.3464    0.2410    0.0000 C   0  0  0  0  0  0  0  0  0  0  0  0
    2.6014    1.0256    0.0000 C   0  0  0  0  0  0  0  0  0  0  0  0
    3.4084    1.1971    0.0000 C   0  0  0  0  0  0  0  0  0  0  0  0
    1.9339    1.5105    0.0000 C   0  0  0  0  0  0  0  0  0  0  0  0
    1.9339    2.3355    0.0000 C   0  0  0  0  0  0  0  0  0  0  0  0
    1.2195    2.7480    0.0000 N   0  0  0  0  0  0  0  0  0  0  0  0
    2.6484    2.7480    0.0000 O   0  0  0  0  0  0  0  0  0  0  0  0
    1.2665    1.0256    0.0000 C   0  0  0  0  0  0  0  0  0  0  0  0
    1.5214    0.2410    0.0000 N   0  0  0  0  0  0  0  0  0  0  0  0
    0.9694   -0.3721    0.0000 C   0  0  0  0  0  0  0  0  0  0  0  0
    0.1624   -0.2006    0.0000 C   0  0  1  0  0  0  0  0  0  0  0  0
    0.1336   -1.0251    0.0000 N   0  0  0  0  0  0  0  0  0  0  0  0
    0.8333   -1.4623    0.0000 C   0  0  0  0  0  0  0  0  0  0  0  0
    1.5617   -1.0750    0.0000 O   0  0  0  0  0  0  0  0  0  0  0  0
    0.8045   -2.2868    0.0000 C   0  0  0  0  0  0  0  0  0  0  0  0
    1.5041   -2.7240    0.0000 C   0  0  0  0  0  0  0  0  0  0  0  0
    1.4753   -3.5485    0.0000 C   0  0  0  0  0  0  0  0  0  0  0  0
    0.7469   -3.9358    0.0000 C   0  0  0  0  0  0  0  0  0  0  0  0
    0.7181   -4.7603    0.0000 N   0  0  0  0  0  0  0  0  0  0  0  0
    1.3682   -5.2682    0.0000 C   0  0  0  0  0  0  0  0  0  0  0  0
    1.0861   -6.0434    0.0000 N   0  0  0  0  0  0  0  0  0  0  0  0
    0.2616   -6.0146    0.0000 N   0  0  0  0  0  0  0  0  0  0  0  0
    0.0342   -5.2216    0.0000 C   0  0  0  0  0  0  0  0  0  0  0  0
    0.0473   -3.4986    0.0000 C   0  0  0  0  0  0  0  0  0  0  0  0
    0.0761   -2.6741    0.0000 C   0  0  0  0  0  0  0  0  0  0  0  0
   -0.6236   -2.2369    0.0000 Cl  0  0  0  0  0  0  0  0  0  0  0  0
   -0.6545   -0.3154    0.0000 C   0  0  0  0  0  0  0  0  0  0  0  0
   -0.9636   -1.0803    0.0000 C   0  0  0  0  0  0  0  0  0  0  0  0
   -1.7806   -1.1952    0.0000 C   0  0  0  0  0  0  0  0  0  0  0  0
   -2.2885   -0.5450    0.0000 C   0  0  0  0  0  0  0  0  0  0  0  0
   -1.9794    0.2199    0.0000 C   0  0  0  0  0  0  0  0  0  0  0  0
   -1.1625    0.3347    0.0000 C   0  0  0  0  0  0  0  0  0  0  0  0
   -0.0925    0.5840    0.0000 C   0  0  0  0  0  0  0  0  0  0  0  0
    0.4595    1.1971    0.0000 C   0  0  0  0  0  0  0  0  0  0  0  0
  1  2  1  0  0  0  0
  2  3  4  0  0  0  0
  3  4  4  0  0  0  0
  4  5  4  0  0  0  0
  5  6  4  0  0  0  0
  6  7  4  0  0  0  0
  2  7  4  0  0  0  0
  6  8  4  0  0  0  0
  8  9  1  0  0  0  0
  9 10  1  0  0  0  0
  9 11  2  0  0  0  0
  8 12  4  0  0  0  0
 12 13  4  0  0  0  0
  5 13  4  0  0  0  0
 13 14  1  0  0  0  0
 14 15  1  0  0  0  0
 15 16  1  6  0  0  0
 16 17  1  0  0  0  0
 17 18  2  0  0  0  0
 17 19  1  0  0  0  0
 19 20  4  0  0  0  0
 20 21  4  0  0  0  0
 21 22  4  0  0  0  0
 22 23  1  0  0  0  0
 23 24  4  0  0  0  0
 24 25  4  0  0  0  0
 25 26  4  0  0  0  0
 26 27  4  0  0  0  0
 23 27  4  0  0  0  0
 22 28  4  0  0  0  0
 28 29  4  0  0  0  0
 19 29  4  0  0  0  0
 29 30  1  0  0  0  0
 15 31  1  1  0  0  0
 31 32  4  0  0  0  0
 32 33  4  0  0  0  0
 33 34  4  0  0  0  0
 34 35  4  0  0  0  0
 35 36  4  0  0  0  0
 31 36  4  0  0  0  0
 15 37  1  0  0  0  0
 37 38  1  0  0  0  0
 12 38  1  0  0  0  0
M  END
>  <CdId>
358568

>  <Mol Weight>
525.001

>  <Formula>
C29H25ClN6O2

>  <cmpd_chemblid>
CHEMBL3629110

>  <std_type>
Ki

>  <std_value>
2.6

>  <std_unit>
nM

>  <target_id>
CHEMBL2016

>  <target_name>
Coagulation factor IX

>  <organism>
Homo sapiens

>  <target_type>
SINGLE PROTEIN

$$$$

  Mrv0541 08052111042D          

 40 45  0  0  0  0            999 V2000
    7.1787    0.0099    0.0000 C   0  0  0  0  0  0  0  0  0  0  0  0
    7.4337   -0.7747    0.0000 N   0  0  0  0  0  0  0  0  0  0  0  0
    6.9488   -1.4421    0.0000 C   0  0  0  0  0  0  0  0  0  0  0  0
    7.4337   -2.1096    0.0000 C   0  0  0  0  0  0  0  0  0  0  0  0
    7.1787   -2.8942    0.0000 C   0  0  0  0  0  0  0  0  0  0  0  0
    6.3718   -3.0657    0.0000 C   0  0  0  0  0  0  0  0  0  0  0  0
    5.8197   -2.4526    0.0000 C   0  0  0  0  0  0  0  0  0  0  0  0
    5.0128   -2.6241    0.0000 C   0  0  0  0  0  0  0  0  0  0  0  0
    4.4607   -2.0110    0.0000 C   0  0  0  0  0  0  0  0  0  0  0  0
    4.7157   -1.2264    0.0000 C   0  0  0  0  0  0  0  0  0  0  0  0
    5.5226   -1.0549    0.0000 C   0  0  0  0  0  0  0  0  0  0  0  0
    6.0747   -1.6680    0.0000 C   0  0  0  0  0  0  0  0  0  0  0  0
    7.7308   -3.5073    0.0000 C   0  0  0  0  0  0  0  0  0  0  0  0
    8.5377   -3.3357    0.0000 O   0  0  0  0  0  0  0  0  0  0  0  0
    7.4758   -4.2919    0.0000 N   0  0  0  0  0  0  0  0  0  0  0  0
    8.0279   -4.9050    0.0000 C   0  0  0  0  0  0  0  0  0  0  0  0
    8.8348   -4.7335    0.0000 C   0  0  0  0  0  0  0  0  0  0  0  0
    9.3869   -5.3466    0.0000 C   0  0  0  0  0  0  0  0  0  0  0  0
    9.1319   -6.1312    0.0000 C   0  0  0  0  0  0  0  0  0  0  0  0
    9.6840   -6.7443    0.0000 N   0  0  0  0  0  0  0  0  0  0  0  0
   10.5045   -6.6580    0.0000 C   0  0  0  0  0  0  0  0  0  0  0  0
   10.8400   -7.4117    0.0000 N   0  0  0  0  0  0  0  0  0  0  0  0
   10.2269   -7.9637    0.0000 C   0  0  0  0  0  0  0  0  0  0  0  0
   10.2269   -8.7887    0.0000 C   0  0  0  0  0  0  0  0  0  0  0  0
    9.5124   -9.2012    0.0000 C   0  0  0  0  0  0  0  0  0  0  0  0
    8.7980   -8.7887    0.0000 C   0  0  0  0  0  0  0  0  0  0  0  0
    8.7980   -7.9637    0.0000 C   0  0  0  0  0  0  0  0  0  0  0  0
    9.5124   -7.5512    0.0000 C   0  0  0  0  0  0  0  0  0  0  0  0
    8.3250   -6.3027    0.0000 C   0  0  0  0  0  0  0  0  0  0  0  0
    7.7729   -5.6896    0.0000 C   0  0  0  0  0  0  0  0  0  0  0  0
    6.9660   -5.8611    0.0000 F   0  0  0  0  0  0  0  0  0  0  0  0
    8.2183   -1.8546    0.0000 C   0  0  0  0  0  0  0  0  0  0  0  0
    8.9328   -2.2671    0.0000 C   0  0  0  0  0  0  0  0  0  0  0  0
    9.6472   -1.8546    0.0000 C   0  0  0  0  0  0  0  0  0  0  0  0
   10.3617   -2.2671    0.0000 C   0  0  0  0  0  0  0  0  0  0  0  0
   10.3617   -3.0921    0.0000 N   0  0  0  0  0  0  0  0  0  0  0  0
   11.0762   -1.8546    0.0000 N   0  0  0  0  0  0  0  0  0  0  0  0
    9.6472   -1.0296    0.0000 C   0  0  0  0  0  0  0  0  0  0  0  0
    8.9328   -0.6171    0.0000 C   0  0  0  0  0  0  0  0  0  0  0  0
    8.2183   -1.0296    0.0000 C   0  0  0  0  0  0  0  0  0  0  0  0
  1  2  1  0  0  0  0
  2  3  4  0  0  0  0
  3  4  4  0  0  0  0
  4  5  1  0  0  0  0
  5  6  1  0  0  0  0
  6  7  1  0  0  0  0
  7  8  4  0  0  0  0
  8  9  4  0  0  0  0
  9 10  4  0  0  0  0
 10 11  4  0  0  0  0
 11 12  4  0  0  0  0
  7 12  4  0  0  0  0
  5 13  1  0  0  0  0
 13 14  2  0  0  0  0
 13 15  1  0  0  0  0
 15 16  1  0  0  0  0
 16 17  4  0  0  0  0
 17 18  4  0  0  0  0
 18 19  4  0  0  0  0
 19 20  1  0  0  0  0
 20 21  4  0  0  0  0
 21 22  4  0  0  0  0
 22 23  4  0  0  0  0
 23 24  4  0  0  0  0
 24 25  4  0  0  0  0
 25 26  4  0  0  0  0
 26 27  4  0  0  0  0
 27 28  4  0  0  0  0
 23 28  4  0  0  0  0
 20 28  4  0  0  0  0
 19 29  4  0  0  0  0
 29 30  4  0  0  0  0
 16 30  4  0  0  0  0
 30 31  1  0  0  0  0
  4 32  4  0  0  0  0
 32 33  4  0  0  0  0
 33 34  4  0  0  0  0
 34 35  1  0  0  0  0
 35 36  2  0  0  0  0
 35 37  1  0  0  0  0
 34 38  4  0  0  0  0
 38 39  4  0  0  0  0
 39 40  4  0  0  0  0
 32 40  4  0  0  0  0
  2 40  4  0  0  0  0
M  END
>  <CdId>
358569

>  <Mol Weight>
530.5948

>  <Formula>
C32H27FN6O

>  <cmpd_chemblid>
CHEMBL185984

>  <std_type>
Ki

>  <std_value>
360.0

>  <std_unit>
nM

>  <target_id>
CHEMBL2016

>  <target_name>
Coagulation factor IX

>  <organism>
Homo sapiens

>  <target_type>
SINGLE PROTEIN

$$$$

  Mrv0541 08052111042D          

 40 45  0  0  0  0            999 V2000
    4.7812    1.9354    0.0000 N   0  0  0  0  0  0  0  0  0  0  0  0
    4.0668    2.3479    0.0000 C   0  0  0  0  0  0  0  0  0  0  0  0
    4.0668    3.1729    0.0000 N   0  0  0  0  0  0  0  0  0  0  0  0
    3.3523    1.9354    0.0000 C   0  0  0  0  0  0  0  0  0  0  0  0
    3.3523    1.1104    0.0000 C   0  0  0  0  0  0  0  0  0  0  0  0
    2.6378    0.6979    0.0000 C   0  0  0  0  0  0  0  0  0  0  0  0
    1.9233    1.1104    0.0000 C   0  0  0  0  0  0  0  0  0  0  0  0
    1.1387    0.8555    0.0000 N   0  0  0  0  0  0  0  0  0  0  0  0
    0.6538    1.5229    0.0000 C   0  0  0  0  0  0  0  0  0  0  0  0
    1.1387    2.1904    0.0000 C   0  0  0  0  0  0  0  0  0  0  0  0
    0.8838    2.9750    0.0000 C   0  0  0  0  0  0  0  0  0  0  0  0
    0.0768    3.1465    0.0000 C   0  0  0  0  0  0  0  0  0  0  0  0
   -0.1781    3.9312    0.0000 C   0  0  0  0  0  0  0  0  0  0  0  0
   -0.9851    4.1027    0.0000 C   0  0  0  0  0  0  0  0  0  0  0  0
   -1.2400    4.8873    0.0000 C   0  0  0  0  0  0  0  0  0  0  0  0
   -0.6880    5.5004    0.0000 C   0  0  0  0  0  0  0  0  0  0  0  0
    0.1190    5.3289    0.0000 C   0  0  0  0  0  0  0  0  0  0  0  0
    0.3739    4.5442    0.0000 C   0  0  0  0  0  0  0  0  0  0  0  0
    1.4358    3.5881    0.0000 C   0  0  0  0  0  0  0  0  0  0  0  0
    2.2428    3.4166    0.0000 O   0  0  0  0  0  0  0  0  0  0  0  0
    1.1809    4.3727    0.0000 N   0  0  0  0  0  0  0  0  0  0  0  0
    1.7329    4.9858    0.0000 C   0  0  0  0  0  0  0  0  0  0  0  0
    1.4780    5.7704    0.0000 C   0  0  0  0  0  0  0  0  0  0  0  0
    2.0300    6.3835    0.0000 C   0  0  0  0  0  0  0  0  0  0  0  0
    2.8370    6.2120    0.0000 C   0  0  0  0  0  0  0  0  0  0  0  0
    3.3890    6.8251    0.0000 N   0  0  0  0  0  0  0  0  0  0  0  0
    3.2175    7.6321    0.0000 C   0  0  0  0  0  0  0  0  0  0  0  0
    3.9320    8.0446    0.0000 N   0  0  0  0  0  0  0  0  0  0  0  0
    4.5450    7.4925    0.0000 C   0  0  0  0  0  0  0  0  0  0  0  0
    5.3520    7.6641    0.0000 C   0  0  0  0  0  0  0  0  0  0  0  0
    5.6070    8.4487    0.0000 C   0  0  0  0  0  0  0  0  0  0  0  0
    6.4139    8.6202    0.0000 C   0  0  0  0  0  0  0  0  0  0  0  0
    6.9660    8.0071    0.0000 C   0  0  0  0  0  0  0  0  0  0  0  0
    6.7110    7.2225    0.0000 C   0  0  0  0  0  0  0  0  0  0  0  0
    5.9040    7.0510    0.0000 C   0  0  0  0  0  0  0  0  0  0  0  0
    4.2095    6.7389    0.0000 C   0  0  0  0  0  0  0  0  0  0  0  0
    3.0919    5.4274    0.0000 C   0  0  0  0  0  0  0  0  0  0  0  0
    2.5399    4.8143    0.0000 C   0  0  0  0  0  0  0  0  0  0  0  0
    1.9233    1.9354    0.0000 C   0  0  0  0  0  0  0  0  0  0  0  0
    2.6378    2.3479    0.0000 C   0  0  0  0  0  0  0  0  0  0  0  0
  1  2  2  0  0  0  0
  2  3  1  0  0  0  0
  2  4  1  0  0  0  0
  4  5  4  0  0  0  0
  5  6  4  0  0  0  0
  6  7  4  0  0  0  0
  7  8  4  0  0  0  0
  8  9  4  0  0  0  0
  9 10  4  0  0  0  0
 10 11  1  0  0  0  0
 11 12  1  0  0  0  0
 12 13  1  0  0  0  0
 13 14  4  0  0  0  0
 14 15  4  0  0  0  0
 15 16  4  0  0  0  0
 16 17  4  0  0  0  0
 17 18  4  0  0  0  0
 13 18  4  0  0  0  0
 11 19  1  0  0  0  0
 19 20  2  0  0  0  0
 19 21  1  0  0  0  0
 21 22  1  0  0  0  0
 22 23  4  0  0  0  0
 23 24  4  0  0  0  0
 24 25  4  0  0  0  0
 25 26  1  0  0  0  0
 26 27  4  0  0  0  0
 27 28  4  0  0  0  0
 28 29  4  0  0  0  0
 29 30  1  0  0  0  0
 30 31  4  0  0  0  0
 31 32  4  0  0  0  0
 32 33  4  0  0  0  0
 33 34  4  0  0  0  0
 34 35  4  0  0  0  0
 30 35  4  0  0  0  0
 29 36  4  0  0  0  0
 26 36  4  0  0  0  0
 25 37  4  0  0  0  0
 37 38  4  0  0  0  0
 22 38  4  0  0  0  0
 10 39  4  0  0  0  0
  7 39  4  0  0  0  0
 39 40  4  0  0  0  0
  4 40  4  0  0  0  0
M  STY  1   1 DAT
M  SAL   1  1   8
M  SDT   1 MRV_IMPLICIT_H                                        
M  SDD   1     0.0000    0.0000    DR    ALL  0       0  
M  SED   1 IMPL_H1
M  END
>  <CdId>
358570

>  <Mol Weight>
524.615

>  <Formula>
C33H28N6O

>  <cmpd_chemblid>
CHEMBL187646

>  <std_type>
Ki

>  <std_value>
270.0

>  <std_unit>
nM

>  <target_id>
CHEMBL2016

>  <target_name>
Coagulation factor IX

>  <organism>
Homo sapiens

>  <target_type>
SINGLE PROTEIN

$$$$

  Mrv0541 08052111042D          

 35 38  0  0  1  0            999 V2000
    0.0000    0.0000    0.0000 C   0  0  0  0  0  0  0  0  0  0  0  0
    0.7145   -0.4125    0.0000 C   0  0  0  0  0  0  0  0  0  0  0  0
    1.4289    0.0000    0.0000 C   0  0  0  0  0  0  0  0  0  0  0  0
    2.1434   -0.4125    0.0000 C   0  0  0  0  0  0  0  0  0  0  0  0
    2.8579    0.0000    0.0000 C   0  0  0  0  0  0  0  0  0  0  0  0
    2.8579    0.8250    0.0000 N   0  0  0  0  0  0  0  0  0  0  0  0
    3.5724   -0.4125    0.0000 N   0  0  0  0  0  0  0  0  0  0  0  0
    3.5724   -1.2375    0.0000 C   0  0  0  0  0  0  0  0  0  0  0  0
    2.8579   -1.6500    0.0000 C   0  0  0  0  0  0  0  0  0  0  0  0
    2.1434   -1.2375    0.0000 C   0  0  0  0  0  0  0  0  0  0  0  0
    1.4289   -1.6500    0.0000 C   0  0  0  0  0  0  0  0  0  0  0  0
    0.7145   -1.2375    0.0000 C   0  0  0  0  0  0  0  0  0  0  0  0
    0.0000   -1.6500    0.0000 C   0  0  0  0  0  0  0  0  0  0  0  0
    0.0000   -2.4750    0.0000 C   0  0  2  0  0  0  0  0  0  0  0  0
    0.7145   -2.8875    0.0000 C   0  0  0  0  0  0  0  0  0  0  0  0
    1.4289   -2.4750    0.0000 O   0  0  0  0  0  0  0  0  0  0  0  0
    0.7145   -3.7125    0.0000 O   0  0  0  0  0  0  0  0  0  0  0  0
   -0.7145   -2.8875    0.0000 N   0  0  0  0  0  0  0  0  0  0  0  0
   -0.8007   -3.7080    0.0000 C   0  0  0  0  0  0  0  0  0  0  0  0
   -1.6077   -3.8795    0.0000 C   0  0  0  0  0  0  0  0  0  0  0  0
   -2.0202   -3.1650    0.0000 C   0  0  2  0  0  0  0  0  0  0  0  0
   -2.8407   -3.0788    0.0000 N   0  0  0  0  0  0  0  0  0  0  0  0
   -3.3256   -3.7462    0.0000 S   0  0  0  0  0  0  0  0  0  0  0  0
   -3.9930   -3.2613    0.0000 O   0  0  0  0  0  0  0  0  0  0  0  0
   -2.6581   -4.2312    0.0000 O   0  0  0  0  0  0  0  0  0  0  0  0
   -3.8105   -4.4137    0.0000 C   0  0  0  0  0  0  0  0  0  0  0  0
   -3.5556   -5.1983    0.0000 C   0  0  0  0  0  0  0  0  0  0  0  0
   -4.2230   -5.6832    0.0000 N   0  0  0  0  0  0  0  0  0  0  0  0
   -4.8904   -5.1983    0.0000 C   0  0  0  0  0  0  0  0  0  0  0  0
   -5.6751   -5.4532    0.0000 N   0  0  0  0  0  0  0  0  0  0  0  0
   -5.8466   -6.2602    0.0000 C   0  0  0  0  0  0  0  0  0  0  0  0
   -6.2882   -4.9012    0.0000 C   0  0  0  0  0  0  0  0  0  0  0  0
   -4.6355   -4.4137    0.0000 S   0  0  0  0  0  0  0  0  0  0  0  0
   -1.4681   -2.5519    0.0000 C   0  0  0  0  0  0  0  0  0  0  0  0
   -1.6397   -1.7450    0.0000 O   0  0  0  0  0  0  0  0  0  0  0  0
  1  2  1  0  0  0  0
  2  3  4  0  0  0  0
  3  4  4  0  0  0  0
  4  5  4  0  0  0  0
  5  6  1  0  0  0  0
  5  7  4  0  0  0  0
  7  8  4  0  0  0  0
  8  9  4  0  0  0  0
  9 10  4  0  0  0  0
  4 10  4  0  0  0  0
 10 11  4  0  0  0  0
 11 12  4  0  0  0  0
  2 12  4  0  0  0  0
 12 13  1  0  0  0  0
 13 14  1  0  0  0  0
 14 15  1  0  0  0  0
 15 16  2  0  0  0  0
 15 17  1  0  0  0  0
 14 18  1  6  0  0  0
 18 19  1  0  0  0  0
 19 20  1  0  0  0  0
 20 21  1  0  0  0  0
 21 22  1  6  0  0  0
 22 23  1  0  0  0  0
 23 24  2  0  0  0  0
 23 25  2  0  0  0  0
 23 26  1  0  0  0  0
 26 27  4  0  0  0  0
 27 28  4  0  0  0  0
 28 29  4  0  0  0  0
 29 30  1  0  0  0  0
 30 31  1  0  0  0  0
 30 32  1  0  0  0  0
 29 33  4  0  0  0  0
 26 33  4  0  0  0  0
 21 34  1  0  0  0  0
 18 34  1  0  0  0  0
 34 35  2  0  0  0  0
M  END
>  <CdId>
358571

>  <Mol Weight>
518.609

>  <Formula>
C22H26N6O5S2

>  <cmpd_chemblid>
CHEMBL3932753

>  <std_type>
Ki

>  <std_value>
75.0

>  <std_unit>
nM

>  <target_id>
CHEMBL2016

>  <target_name>
Coagulation factor IX

>  <organism>
Homo sapiens

>  <target_type>
SINGLE PROTEIN

$$$$

  Mrv0541 08052111042D          

 32 35  0  0  0  0            999 V2000
    0.0000    0.8250    0.0000 N   0  0  0  0  0  0  0  0  0  0  0  0
    0.0000    0.0000    0.0000 C   0  0  0  0  0  0  0  0  0  0  0  0
   -0.7145   -0.4125    0.0000 N   0  0  0  0  0  0  0  0  0  0  0  0
    0.7145   -0.4125    0.0000 C   0  0  0  0  0  0  0  0  0  0  0  0
    1.4289    0.0000    0.0000 C   0  0  0  0  0  0  0  0  0  0  0  0
    2.1434   -0.4125    0.0000 C   0  0  0  0  0  0  0  0  0  0  0  0
    2.1434   -1.2375    0.0000 C   0  0  0  0  0  0  0  0  0  0  0  0
    1.4289   -1.6500    0.0000 C   0  0  0  0  0  0  0  0  0  0  0  0
    1.4289   -2.4750    0.0000 N   0  0  0  0  0  0  0  0  0  0  0  0
    2.0964   -2.9599    0.0000 N   0  0  0  0  0  0  0  0  0  0  0  0
    1.8414   -3.7445    0.0000 C   0  0  0  0  0  0  0  0  0  0  0  0
    2.3264   -4.4120    0.0000 C   0  0  0  0  0  0  0  0  0  0  0  0
    2.8113   -5.0794    0.0000 F   0  0  0  0  0  0  0  0  0  0  0  0
    1.6589   -4.8969    0.0000 F   0  0  0  0  0  0  0  0  0  0  0  0
    2.9938   -3.9271    0.0000 F   0  0  0  0  0  0  0  0  0  0  0  0
    1.0164   -3.7445    0.0000 C   0  0  0  0  0  0  0  0  0  0  0  0
    0.7615   -2.9599    0.0000 C   0  0  0  0  0  0  0  0  0  0  0  0
   -0.0231   -2.7050    0.0000 C   0  0  0  0  0  0  0  0  0  0  0  0
   -0.1946   -1.8980    0.0000 O   0  0  0  0  0  0  0  0  0  0  0  0
   -0.6362   -3.2570    0.0000 N   0  0  0  0  0  0  0  0  0  0  0  0
   -1.4208   -3.0021    0.0000 C   0  0  0  0  0  0  0  0  0  0  0  0
   -2.0339   -3.5541    0.0000 C   0  0  0  0  0  0  0  0  0  0  0  0
   -2.8186   -3.2992    0.0000 C   0  0  0  0  0  0  0  0  0  0  0  0
   -2.9901   -2.4922    0.0000 C   0  0  0  0  0  0  0  0  0  0  0  0
   -3.7747   -2.2373    0.0000 N   0  0  0  0  0  0  0  0  0  0  0  0
   -4.4421   -2.7222    0.0000 C   0  0  0  0  0  0  0  0  0  0  0  0
   -5.1096   -2.2373    0.0000 C   0  0  0  0  0  0  0  0  0  0  0  0
   -4.8546   -1.4526    0.0000 N   0  0  0  0  0  0  0  0  0  0  0  0
   -4.0296   -1.4526    0.0000 C   0  0  0  0  0  0  0  0  0  0  0  0
   -2.3770   -1.9402    0.0000 C   0  0  0  0  0  0  0  0  0  0  0  0
   -1.5924   -2.1951    0.0000 C   0  0  0  0  0  0  0  0  0  0  0  0
    0.7145   -1.2375    0.0000 C   0  0  0  0  0  0  0  0  0  0  0  0
  1  2  2  0  0  0  0
  2  3  1  0  0  0  0
  2  4  1  0  0  0  0
  4  5  4  0  0  0  0
  5  6  4  0  0  0  0
  6  7  4  0  0  0  0
  7  8  4  0  0  0  0
  8  9  1  0  0  0  0
  9 10  4  0  0  0  0
 10 11  4  0  0  0  0
 11 12  1  0  0  0  0
 12 13  1  0  0  0  0
 12 14  1  0  0  0  0
 12 15  1  0  0  0  0
 11 16  4  0  0  0  0
 16 17  4  0  0  0  0
  9 17  4  0  0  0  0
 17 18  1  0  0  0  0
 18 19  2  0  0  0  0
 18 20  1  0  0  0  0
 20 21  1  0  0  0  0
 21 22  4  0  0  0  0
 22 23  4  0  0  0  0
 23 24  4  0  0  0  0
 24 25  1  0  0  0  0
 25 26  4  0  0  0  0
 26 27  4  0  0  0  0
 27 28  4  0  0  0  0
 28 29  4  0  0  0  0
 25 29  4  0  0  0  0
 24 30  4  0  0  0  0
 30 31  4  0  0  0  0
 21 31  4  0  0  0  0
  8 32  4  0  0  0  0
  4 32  4  0  0  0  0
M  END
>  <CdId>
358574

>  <Mol Weight>
439.3932

>  <Formula>
C21H16F3N7O

>  <cmpd_chemblid>
CHEMBL185707

>  <std_type>
Ki

>  <std_value>
72.0

>  <std_unit>
nM

>  <target_id>
CHEMBL2016

>  <target_name>
Coagulation factor IX

>  <organism>
Homo sapiens

>  <target_type>
SINGLE PROTEIN

$$$$

  Mrv0541 08052111042D          

 42 46  0  0  1  0            999 V2000
    3.9849    3.9849    0.0000 C   0  0  0  0  0  0  0  0  0  0  0  0
    4.3974    3.2704    0.0000 C   0  0  2  0  0  0  0  0  0  0  0  0
    5.2224    3.2704    0.0000 C   0  0  0  0  0  0  0  0  0  0  0  0
    5.6349    2.5559    0.0000 C   0  0  0  0  0  0  0  0  0  0  0  0
    6.4599    2.5559    0.0000 C   0  0  0  0  0  0  0  0  0  0  0  0
    6.8724    1.8414    0.0000 C   0  0  2  0  0  0  0  0  0  0  0  0
    7.6974    1.8414    0.0000 N   0  0  0  0  0  0  0  0  0  0  0  0
    8.1099    2.5559    0.0000 C   0  0  0  0  0  0  0  0  0  0  0  0
    8.9349    2.5559    0.0000 C   0  0  0  0  0  0  0  0  0  0  0  0
    9.3474    1.8414    0.0000 C   0  0  0  0  0  0  0  0  0  0  0  0
   10.1724    1.8414    0.0000 C   0  0  0  0  0  0  0  0  0  0  0  0
   10.5849    2.5559    0.0000 C   0  0  0  0  0  0  0  0  0  0  0  0
   10.1724    3.2704    0.0000 F   0  0  0  0  0  0  0  0  0  0  0  0
   11.4099    2.5559    0.0000 C   0  0  0  0  0  0  0  0  0  0  0  0
   11.8224    1.8414    0.0000 C   0  0  0  0  0  0  0  0  0  0  0  0
   11.4099    1.1270    0.0000 C   0  0  0  0  0  0  0  0  0  0  0  0
   11.8224    0.4125    0.0000 Cl  0  0  0  0  0  0  0  0  0  0  0  0
   10.5849    1.1270    0.0000 C   0  0  0  0  0  0  0  0  0  0  0  0
   10.1724    0.4125    0.0000 F   0  0  0  0  0  0  0  0  0  0  0  0
    8.9349    1.1270    0.0000 C   0  0  0  0  0  0  0  0  0  0  0  0
    8.1099    1.1270    0.0000 C   0  0  0  0  0  0  0  0  0  0  0  0
    7.6974    0.4125    0.0000 O   0  0  0  0  0  0  0  0  0  0  0  0
    6.4599    1.1270    0.0000 C   0  0  0  0  0  0  0  0  0  0  0  0
    5.6349    1.1270    0.0000 C   0  0  0  0  0  0  0  0  0  0  0  0
    5.2224    0.4125    0.0000 C   0  0  0  0  0  0  0  0  0  0  0  0
    5.6349   -0.3020    0.0000 C   0  0  0  0  0  0  0  0  0  0  0  0
    6.4599   -0.3020    0.0000 C   0  0  0  0  0  0  0  0  0  0  0  0
    6.8724    0.4125    0.0000 N   0  0  0  0  0  0  0  0  0  0  0  0
    4.3974    0.4125    0.0000 C   0  0  0  0  0  0  0  0  0  0  0  0
    3.9849   -0.3020    0.0000 C   0  0  0  0  0  0  0  0  0  0  0  0
    3.1599   -0.3020    0.0000 C   0  0  0  0  0  0  0  0  0  0  0  0
    2.7474    0.4125    0.0000 C   0  0  0  0  0  0  0  0  0  0  0  0
    1.9224    0.4125    0.0000 N   0  0  0  0  0  0  0  0  0  0  0  0
    1.5099   -0.3020    0.0000 S   0  0  0  0  0  0  0  0  0  0  0  0
    1.0974   -1.0164    0.0000 C   0  0  0  0  0  0  0  0  0  0  0  0
    0.7954    0.1105    0.0000 O   0  0  0  0  0  0  0  0  0  0  0  0
    2.2243   -0.7145    0.0000 O   0  0  0  0  0  0  0  0  0  0  0  0
    3.1599    1.1270    0.0000 C   0  0  0  0  0  0  0  0  0  0  0  0
    3.9849    1.1270    0.0000 C   0  0  0  0  0  0  0  0  0  0  0  0
    4.3974    1.8414    0.0000 N   0  0  0  0  0  0  0  0  0  0  0  0
    3.9849    2.5559    0.0000 C   0  0  0  0  0  0  0  0  0  0  0  0
    3.1599    2.5559    0.0000 O   0  0  0  0  0  0  0  0  0  0  0  0
  2  1  1  6  0  0  0
  2  3  1  0  0  0  0
  3  4  1  0  0  0  0
  4  5  1  0  0  0  0
  5  6  1  0  0  0  0
  6  7  1  6  0  0  0
  7  8  1  0  0  0  0
  8  9  1  0  0  0  0
  9 10  1  0  0  0  0
 10 11  1  0  0  0  0
 11 12  4  0  0  0  0
 12 13  1  0  0  0  0
 12 14  4  0  0  0  0
 14 15  4  0  0  0  0
 15 16  4  0  0  0  0
 16 17  1  0  0  0  0
 16 18  4  0  0  0  0
 11 18  4  0  0  0  0
 18 19  1  0  0  0  0
 10 20  2  0  0  0  0
 20 21  1  0  0  0  0
  7 21  1  0  0  0  0
 21 22  2  0  0  0  0
  6 23  1  0  0  0  0
 23 24  4  0  0  0  0
 24 25  4  0  0  0  0
 25 26  4  0  0  0  0
 26 27  4  0  0  0  0
 27 28  4  0  0  0  0
 23 28  4  0  0  0  0
 25 29  1  0  0  0  0
 29 30  4  0  0  0  0
 30 31  4  0  0  0  0
 31 32  4  0  0  0  0
 32 33  1  0  0  0  0
 33 34  1  0  0  0  0
 34 35  1  0  0  0  0
 34 36  2  0  0  0  0
 34 37  2  0  0  0  0
 32 38  4  0  0  0  0
 38 39  4  0  0  0  0
 29 39  4  0  0  0  0
 39 40  1  0  0  0  0
 40 41  1  0  0  0  0
  2 41  1  0  0  0  0
 41 42  2  0  0  0  0
M  END
>  <CdId>
358575

>  <Mol Weight>
615.09

>  <Formula>
C30H29ClF2N4O4S

>  <cmpd_chemblid>
CHEMBL4110391

>  <std_type>
Ki

>  <std_value>
7.89

>  <std_unit>
nM

>  <target_id>
CHEMBL2016

>  <target_name>
Coagulation factor IX

>  <organism>
Homo sapiens

>  <target_type>
SINGLE PROTEIN

$$$$

  Mrv0541 08052111042D          

 41 45  0  0  1  0            999 V2000
    8.6329   -2.2539    0.0000 C   0  0  0  0  0  0  0  0  0  0  0  0
    8.2204   -1.5395    0.0000 O   0  0  0  0  0  0  0  0  0  0  0  0
    7.3954   -1.5395    0.0000 C   0  0  0  0  0  0  0  0  0  0  0  0
    6.9829   -2.2539    0.0000 O   0  0  0  0  0  0  0  0  0  0  0  0
    6.9829   -0.8250    0.0000 N   0  0  0  0  0  0  0  0  0  0  0  0
    6.1579   -0.8250    0.0000 C   0  0  0  0  0  0  0  0  0  0  0  0
    5.7454   -0.1105    0.0000 C   0  0  0  0  0  0  0  0  0  0  0  0
    4.9204   -0.1105    0.0000 C   0  0  0  0  0  0  0  0  0  0  0  0
    4.5079   -0.8250    0.0000 C   0  0  0  0  0  0  0  0  0  0  0  0
    4.9204   -1.5395    0.0000 C   0  0  0  0  0  0  0  0  0  0  0  0
    5.7454   -1.5395    0.0000 C   0  0  0  0  0  0  0  0  0  0  0  0
    4.5079   -2.2539    0.0000 N   0  0  0  0  0  0  0  0  0  0  0  0
    4.9204   -2.9684    0.0000 C   0  0  0  0  0  0  0  0  0  0  0  0
    5.7454   -2.9684    0.0000 O   0  0  0  0  0  0  0  0  0  0  0  0
    4.5079   -3.6829    0.0000 C   0  0  2  0  0  0  0  0  0  0  0  0
    4.9204   -4.3974    0.0000 C   0  0  0  0  0  0  0  0  0  0  0  0
    3.6829   -3.6829    0.0000 C   0  0  0  0  0  0  0  0  0  0  0  0
    3.2704   -2.9684    0.0000 C   0  0  0  0  0  0  0  0  0  0  0  0
    2.4454   -2.9684    0.0000 C   0  0  0  0  0  0  0  0  0  0  0  0
    2.0329   -2.2539    0.0000 C   0  0  2  0  0  0  0  0  0  0  0  0
    1.2079   -2.2539    0.0000 N   0  0  0  0  0  0  0  0  0  0  0  0
    0.7954   -2.9684    0.0000 C   0  0  0  0  0  0  0  0  0  0  0  0
   -0.0296   -2.9684    0.0000 C   0  0  0  0  0  0  0  0  0  0  0  0
   -0.4421   -2.2539    0.0000 C   0  0  0  0  0  0  0  0  0  0  0  0
   -1.2671   -2.2539    0.0000 C   0  0  0  0  0  0  0  0  0  0  0  0
   -1.6796   -2.9684    0.0000 C   0  0  0  0  0  0  0  0  0  0  0  0
   -2.5046   -2.9684    0.0000 C   0  0  0  0  0  0  0  0  0  0  0  0
   -2.9171   -3.6829    0.0000 Cl  0  0  0  0  0  0  0  0  0  0  0  0
   -2.9171   -2.2539    0.0000 C   0  0  0  0  0  0  0  0  0  0  0  0
   -2.5046   -1.5395    0.0000 C   0  0  0  0  0  0  0  0  0  0  0  0
   -1.6796   -1.5395    0.0000 C   0  0  0  0  0  0  0  0  0  0  0  0
   -1.2671   -0.8250    0.0000 C   0  0  0  0  0  0  0  0  0  0  0  0
   -0.0296   -1.5395    0.0000 C   0  0  0  0  0  0  0  0  0  0  0  0
    0.7954   -1.5395    0.0000 C   0  0  0  0  0  0  0  0  0  0  0  0
    1.2079   -0.8250    0.0000 O   0  0  0  0  0  0  0  0  0  0  0  0
    2.4454   -1.5395    0.0000 C   0  0  0  0  0  0  0  0  0  0  0  0
    3.2704   -1.5395    0.0000 C   0  0  0  0  0  0  0  0  0  0  0  0
    3.6829   -0.8250    0.0000 C   0  0  0  0  0  0  0  0  0  0  0  0
    3.2704   -0.1105    0.0000 C   0  0  0  0  0  0  0  0  0  0  0  0
    2.4454   -0.1105    0.0000 C   0  0  0  0  0  0  0  0  0  0  0  0
    2.0329   -0.8250    0.0000 N   0  0  0  0  0  0  0  0  0  0  0  0
  1  2  1  0  0  0  0
  2  3  1  0  0  0  0
  3  4  2  0  0  0  0
  3  5  1  0  0  0  0
  5  6  1  0  0  0  0
  6  7  4  0  0  0  0
  7  8  4  0  0  0  0
  8  9  4  0  0  0  0
  9 10  4  0  0  0  0
 10 11  4  0  0  0  0
  6 11  4  0  0  0  0
 10 12  1  0  0  0  0
 12 13  1  0  0  0  0
 13 14  2  0  0  0  0
 13 15  1  0  0  0  0
 15 16  1  6  0  0  0
 15 17  1  0  0  0  0
 17 18  1  0  0  0  0
 18 19  1  0  0  0  0
 19 20  1  0  0  0  0
 20 21  1  6  0  0  0
 21 22  1  0  0  0  0
 22 23  1  0  0  0  0
 23 24  1  0  0  0  0
 24 25  1  0  0  0  0
 25 26  4  0  0  0  0
 26 27  4  0  0  0  0
 27 28  1  0  0  0  0
 27 29  4  0  0  0  0
 29 30  4  0  0  0  0
 30 31  4  0  0  0  0
 25 31  4  0  0  0  0
 31 32  1  0  0  0  0
 24 33  2  0  0  0  0
 33 34  1  0  0  0  0
 21 34  1  0  0  0  0
 34 35  2  0  0  0  0
 20 36  1  0  0  0  0
 36 37  4  0  0  0  0
 37 38  4  0  0  0  0
  9 38  1  0  0  0  0
 38 39  4  0  0  0  0
 39 40  4  0  0  0  0
 40 41  4  0  0  0  0
 36 41  4  0  0  0  0
M  END
>  <CdId>
358576

>  <Mol Weight>
573.082

>  <Formula>
C32H33ClN4O4

>  <cmpd_chemblid>
CHEMBL4113149

>  <std_type>
Ki

>  <std_value>
0.62

>  <std_unit>
nM

>  <target_id>
CHEMBL2016

>  <target_name>
Coagulation factor IX

>  <organism>
Homo sapiens

>  <target_type>
SINGLE PROTEIN

$$$$

  Mrv0541 08052111042D          

 43 47  0  0  1  0            999 V2000
    8.6329   -2.2539    0.0000 C   0  0  0  0  0  0  0  0  0  0  0  0
    8.2204   -1.5395    0.0000 O   0  0  0  0  0  0  0  0  0  0  0  0
    7.3954   -1.5395    0.0000 C   0  0  0  0  0  0  0  0  0  0  0  0
    6.9829   -2.2539    0.0000 O   0  0  0  0  0  0  0  0  0  0  0  0
    6.9829   -0.8250    0.0000 N   0  0  0  0  0  0  0  0  0  0  0  0
    6.1579   -0.8250    0.0000 C   0  0  0  0  0  0  0  0  0  0  0  0
    5.7454   -0.1105    0.0000 C   0  0  0  0  0  0  0  0  0  0  0  0
    4.9204   -0.1105    0.0000 C   0  0  0  0  0  0  0  0  0  0  0  0
    4.5079   -0.8250    0.0000 C   0  0  0  0  0  0  0  0  0  0  0  0
    4.9204   -1.5395    0.0000 C   0  0  0  0  0  0  0  0  0  0  0  0
    5.7454   -1.5395    0.0000 C   0  0  0  0  0  0  0  0  0  0  0  0
    4.5079   -2.2539    0.0000 N   0  0  0  0  0  0  0  0  0  0  0  0
    4.9204   -2.9684    0.0000 C   0  0  0  0  0  0  0  0  0  0  0  0
    5.7454   -2.9684    0.0000 O   0  0  0  0  0  0  0  0  0  0  0  0
    4.5079   -3.6829    0.0000 C   0  0  2  0  0  0  0  0  0  0  0  0
    4.9204   -4.3974    0.0000 C   0  0  0  0  0  0  0  0  0  0  0  0
    3.6829   -3.6829    0.0000 C   0  0  0  0  0  0  0  0  0  0  0  0
    3.2704   -2.9684    0.0000 C   0  0  0  0  0  0  0  0  0  0  0  0
    2.4454   -2.9684    0.0000 C   0  0  0  0  0  0  0  0  0  0  0  0
    2.0329   -2.2539    0.0000 C   0  0  2  0  0  0  0  0  0  0  0  0
    1.2079   -2.2539    0.0000 N   0  0  0  0  0  0  0  0  0  0  0  0
    0.7954   -2.9684    0.0000 C   0  0  0  0  0  0  0  0  0  0  0  0
   -0.0296   -2.9684    0.0000 C   0  0  0  0  0  0  0  0  0  0  0  0
   -0.4421   -2.2539    0.0000 C   0  0  0  0  0  0  0  0  0  0  0  0
   -1.2671   -2.2539    0.0000 C   0  0  0  0  0  0  0  0  0  0  0  0
   -1.6796   -2.9684    0.0000 C   0  0  0  0  0  0  0  0  0  0  0  0
   -1.2671   -3.6829    0.0000 C   0  0  0  0  0  0  0  0  0  0  0  0
   -0.8546   -4.3974    0.0000 N   0  0  0  0  0  0  0  0  0  0  0  0
   -2.5046   -2.9684    0.0000 C   0  0  0  0  0  0  0  0  0  0  0  0
   -2.9171   -2.2539    0.0000 C   0  0  0  0  0  0  0  0  0  0  0  0
   -2.5046   -1.5395    0.0000 C   0  0  0  0  0  0  0  0  0  0  0  0
   -2.9171   -0.8250    0.0000 Cl  0  0  0  0  0  0  0  0  0  0  0  0
   -1.6796   -1.5395    0.0000 C   0  0  0  0  0  0  0  0  0  0  0  0
   -1.2671   -0.8250    0.0000 F   0  0  0  0  0  0  0  0  0  0  0  0
   -0.0296   -1.5395    0.0000 C   0  0  0  0  0  0  0  0  0  0  0  0
    0.7954   -1.5395    0.0000 C   0  0  0  0  0  0  0  0  0  0  0  0
    1.2079   -0.8250    0.0000 O   0  0  0  0  0  0  0  0  0  0  0  0
    2.4454   -1.5395    0.0000 C   0  0  0  0  0  0  0  0  0  0  0  0
    2.0329   -0.8250    0.0000 C   0  0  0  0  0  0  0  0  0  0  0  0
    2.4454   -0.1105    0.0000 C   0  0  0  0  0  0  0  0  0  0  0  0
    3.2704   -0.1105    0.0000 C   0  0  0  0  0  0  0  0  0  0  0  0
    3.6829   -0.8250    0.0000 C   0  0  0  0  0  0  0  0  0  0  0  0
    3.2704   -1.5395    0.0000 C   0  0  0  0  0  0  0  0  0  0  0  0
  1  2  1  0  0  0  0
  2  3  1  0  0  0  0
  3  4  2  0  0  0  0
  3  5  1  0  0  0  0
  5  6  1  0  0  0  0
  6  7  4  0  0  0  0
  7  8  4  0  0  0  0
  8  9  4  0  0  0  0
  9 10  4  0  0  0  0
 10 11  4  0  0  0  0
  6 11  4  0  0  0  0
 10 12  1  0  0  0  0
 12 13  1  0  0  0  0
 13 14  2  0  0  0  0
 13 15  1  0  0  0  0
 15 16  1  6  0  0  0
 15 17  1  0  0  0  0
 17 18  1  0  0  0  0
 18 19  1  0  0  0  0
 19 20  1  0  0  0  0
 20 21  1  6  0  0  0
 21 22  1  0  0  0  0
 22 23  1  0  0  0  0
 23 24  1  0  0  0  0
 24 25  1  0  0  0  0
 25 26  4  0  0  0  0
 26 27  1  0  0  0  0
 27 28  3  0  0  0  0
 26 29  4  0  0  0  0
 29 30  4  0  0  0  0
 30 31  4  0  0  0  0
 31 32  1  0  0  0  0
 31 33  4  0  0  0  0
 25 33  4  0  0  0  0
 33 34  1  0  0  0  0
 24 35  2  0  0  0  0
 35 36  1  0  0  0  0
 21 36  1  0  0  0  0
 36 37  2  0  0  0  0
 20 38  1  0  0  0  0
 38 39  4  0  0  0  0
 39 40  4  0  0  0  0
 40 41  4  0  0  0  0
 41 42  4  0  0  0  0
  9 42  1  0  0  0  0
 42 43  4  0  0  0  0
 38 43  4  0  0  0  0
M  END
>  <CdId>
358577

>  <Mol Weight>
601.067

>  <Formula>
C33H30ClFN4O4

>  <cmpd_chemblid>
CHEMBL4112342

>  <std_type>
Ki

>  <std_value>
0.42

>  <std_unit>
nM

>  <target_id>
CHEMBL2016

>  <target_name>
Coagulation factor IX

>  <organism>
Homo sapiens

>  <target_type>
SINGLE PROTEIN

$$$$

  Mrv0541 08052111042D          

 36 39  0  0  1  0            999 V2000
    1.4289    2.4750    0.0000 C   0  0  0  0  0  0  0  0  0  0  0  0
    0.7145    2.0625    0.0000 O   0  0  0  0  0  0  0  0  0  0  0  0
    0.7145    1.2375    0.0000 C   0  0  0  0  0  0  0  0  0  0  0  0
    1.4289    0.8250    0.0000 O   0  0  0  0  0  0  0  0  0  0  0  0
    0.0000    0.8250    0.0000 C   0  0  1  0  0  0  0  0  0  0  0  0
    0.0000    0.0000    0.0000 C   0  0  0  0  0  0  0  0  0  0  0  0
    0.7145   -0.4125    0.0000 C   0  0  0  0  0  0  0  0  0  0  0  0
    1.4289    0.0000    0.0000 C   0  0  0  0  0  0  0  0  0  0  0  0
    2.1434   -0.4125    0.0000 C   0  0  0  0  0  0  0  0  0  0  0  0
    2.8579    0.0000    0.0000 C   0  0  0  0  0  0  0  0  0  0  0  0
    3.5724   -0.4125    0.0000 C   0  0  0  0  0  0  0  0  0  0  0  0
    3.5724   -1.2375    0.0000 N   0  0  0  0  0  0  0  0  0  0  0  0
    2.8579   -1.6500    0.0000 C   0  0  0  0  0  0  0  0  0  0  0  0
    2.8579   -2.4750    0.0000 N   0  0  0  0  0  0  0  0  0  0  0  0
    2.1434   -1.2375    0.0000 C   0  0  0  0  0  0  0  0  0  0  0  0
    1.4289   -1.6500    0.0000 C   0  0  0  0  0  0  0  0  0  0  0  0
    0.7145   -1.2375    0.0000 C   0  0  0  0  0  0  0  0  0  0  0  0
    0.0000   -1.6500    0.0000 Cl  0  0  0  0  0  0  0  0  0  0  0  0
   -0.7145    1.2375    0.0000 N   0  0  0  0  0  0  0  0  0  0  0  0
   -1.4681    0.9019    0.0000 C   0  0  0  0  0  0  0  0  0  0  0  0
   -2.0202    1.5150    0.0000 C   0  0  0  0  0  0  0  0  0  0  0  0
   -1.6077    2.2295    0.0000 C   0  0  2  0  0  0  0  0  0  0  0  0
   -1.9432    2.9832    0.0000 N   0  0  0  0  0  0  0  0  0  0  0  0
   -2.7637    3.0694    0.0000 S   0  0  0  0  0  0  0  0  0  0  0  0
   -2.6775    3.8899    0.0000 O   0  0  0  0  0  0  0  0  0  0  0  0
   -2.8500    2.2489    0.0000 O   0  0  0  0  0  0  0  0  0  0  0  0
   -3.5842    3.1557    0.0000 C   0  0  0  0  0  0  0  0  0  0  0  0
   -4.1362    2.5426    0.0000 C   0  0  0  0  0  0  0  0  0  0  0  0
   -4.8899    2.8781    0.0000 N   0  0  0  0  0  0  0  0  0  0  0  0
   -4.8037    3.6986    0.0000 C   0  0  0  0  0  0  0  0  0  0  0  0
   -5.4168    4.2506    0.0000 N   0  0  0  0  0  0  0  0  0  0  0  0
   -6.2014    3.9957    0.0000 C   0  0  0  0  0  0  0  0  0  0  0  0
   -5.2452    5.0576    0.0000 C   0  0  0  0  0  0  0  0  0  0  0  0
   -3.9967    3.8701    0.0000 S   0  0  0  0  0  0  0  0  0  0  0  0
   -0.8007    2.0580    0.0000 C   0  0  0  0  0  0  0  0  0  0  0  0
   -0.1876    2.6100    0.0000 O   0  0  0  0  0  0  0  0  0  0  0  0
  1  2  1  0  0  0  0
  2  3  1  0  0  0  0
  3  4  2  0  0  0  0
  3  5  1  0  0  0  0
  5  6  1  0  0  0  0
  6  7  1  0  0  0  0
  7  8  4  0  0  0  0
  8  9  4  0  0  0  0
  9 10  4  0  0  0  0
 10 11  4  0  0  0  0
 11 12  4  0  0  0  0
 12 13  4  0  0  0  0
 13 14  1  0  0  0  0
 13 15  4  0  0  0  0
  9 15  4  0  0  0  0
 15 16  4  0  0  0  0
 16 17  4  0  0  0  0
  7 17  4  0  0  0  0
 17 18  1  0  0  0  0
  5 19  1  1  0  0  0
 19 20  1  0  0  0  0
 20 21  1  0  0  0  0
 21 22  1  0  0  0  0
 22 23  1  6  0  0  0
 23 24  1  0  0  0  0
 24 25  2  0  0  0  0
 24 26  2  0  0  0  0
 24 27  1  0  0  0  0
 27 28  4  0  0  0  0
 28 29  4  0  0  0  0
 29 30  4  0  0  0  0
 30 31  1  0  0  0  0
 31 32  1  0  0  0  0
 31 33  1  0  0  0  0
 30 34  4  0  0  0  0
 27 34  4  0  0  0  0
 22 35  1  0  0  0  0
 19 35  1  0  0  0  0
 35 36  2  0  0  0  0
M  END
>  <CdId>
358580

>  <Mol Weight>
553.054

>  <Formula>
C22H25ClN6O5S2

>  <cmpd_chemblid>
CHEMBL3978164

>  <std_type>
Ki

>  <std_value>
765.0

>  <std_unit>
nM

>  <target_id>
CHEMBL2016

>  <target_name>
Coagulation factor IX

>  <organism>
Homo sapiens

>  <target_type>
SINGLE PROTEIN

$$$$

  Mrv0541 08052111042D          

 42 46  0  0  1  0            999 V2000
    7.3954    1.3184    0.0000 C   0  0  0  0  0  0  0  0  0  0  0  0
    6.9829    0.6039    0.0000 O   0  0  0  0  0  0  0  0  0  0  0  0
    6.1579    0.6039    0.0000 C   0  0  0  0  0  0  0  0  0  0  0  0
    5.7454    1.3184    0.0000 O   0  0  0  0  0  0  0  0  0  0  0  0
    5.7454   -0.1105    0.0000 C   0  0  0  0  0  0  0  0  0  0  0  0
    4.9204   -0.1105    0.0000 C   0  0  0  0  0  0  0  0  0  0  0  0
    4.5079   -0.8250    0.0000 C   0  0  0  0  0  0  0  0  0  0  0  0
    4.9204   -1.5395    0.0000 C   0  0  0  0  0  0  0  0  0  0  0  0
    5.7454   -1.5395    0.0000 C   0  0  0  0  0  0  0  0  0  0  0  0
    6.1579   -0.8250    0.0000 C   0  0  0  0  0  0  0  0  0  0  0  0
    6.9829   -0.8250    0.0000 N   0  0  0  0  0  0  0  0  0  0  0  0
    4.5079   -2.2539    0.0000 N   0  0  0  0  0  0  0  0  0  0  0  0
    4.9204   -2.9684    0.0000 C   0  0  0  0  0  0  0  0  0  0  0  0
    5.7454   -2.9684    0.0000 O   0  0  0  0  0  0  0  0  0  0  0  0
    4.5079   -3.6829    0.0000 C   0  0  2  0  0  0  0  0  0  0  0  0
    4.9204   -4.3974    0.0000 C   0  0  0  0  0  0  0  0  0  0  0  0
    3.6829   -3.6829    0.0000 C   0  0  0  0  0  0  0  0  0  0  0  0
    3.2704   -2.9684    0.0000 C   0  0  0  0  0  0  0  0  0  0  0  0
    2.4454   -2.9684    0.0000 C   0  0  0  0  0  0  0  0  0  0  0  0
    2.0329   -2.2539    0.0000 C   0  0  2  0  0  0  0  0  0  0  0  0
    1.2079   -2.2539    0.0000 N   0  0  0  0  0  0  0  0  0  0  0  0
    0.7954   -2.9684    0.0000 C   0  0  0  0  0  0  0  0  0  0  0  0
   -0.0296   -2.9684    0.0000 C   0  0  0  0  0  0  0  0  0  0  0  0
   -0.4421   -2.2539    0.0000 C   0  0  0  0  0  0  0  0  0  0  0  0
   -1.2671   -2.2539    0.0000 C   0  0  0  0  0  0  0  0  0  0  0  0
   -1.6796   -2.9684    0.0000 C   0  0  0  0  0  0  0  0  0  0  0  0
   -1.2671   -3.6829    0.0000 F   0  0  0  0  0  0  0  0  0  0  0  0
   -2.5046   -2.9684    0.0000 C   0  0  0  0  0  0  0  0  0  0  0  0
   -2.9171   -2.2539    0.0000 C   0  0  0  0  0  0  0  0  0  0  0  0
   -2.5046   -1.5395    0.0000 C   0  0  0  0  0  0  0  0  0  0  0  0
   -2.9171   -0.8250    0.0000 Cl  0  0  0  0  0  0  0  0  0  0  0  0
   -1.6796   -1.5395    0.0000 C   0  0  0  0  0  0  0  0  0  0  0  0
   -1.2671   -0.8250    0.0000 F   0  0  0  0  0  0  0  0  0  0  0  0
   -0.0296   -1.5395    0.0000 C   0  0  0  0  0  0  0  0  0  0  0  0
    0.7954   -1.5395    0.0000 C   0  0  0  0  0  0  0  0  0  0  0  0
    1.2079   -0.8250    0.0000 O   0  0  0  0  0  0  0  0  0  0  0  0
    2.4454   -1.5395    0.0000 C   0  0  0  0  0  0  0  0  0  0  0  0
    3.2704   -1.5395    0.0000 C   0  0  0  0  0  0  0  0  0  0  0  0
    3.6829   -0.8250    0.0000 C   0  0  0  0  0  0  0  0  0  0  0  0
    3.2704   -0.1105    0.0000 C   0  0  0  0  0  0  0  0  0  0  0  0
    2.4454   -0.1105    0.0000 C   0  0  0  0  0  0  0  0  0  0  0  0
    2.0329   -0.8250    0.0000 N   0  0  0  0  0  0  0  0  0  0  0  0
  1  2  1  0  0  0  0
  2  3  1  0  0  0  0
  3  4  2  0  0  0  0
  3  5  1  0  0  0  0
  5  6  4  0  0  0  0
  6  7  4  0  0  0  0
  7  8  4  0  0  0  0
  8  9  4  0  0  0  0
  9 10  4  0  0  0  0
  5 10  4  0  0  0  0
 10 11  1  0  0  0  0
  8 12  1  0  0  0  0
 12 13  1  0  0  0  0
 13 14  2  0  0  0  0
 13 15  1  0  0  0  0
 15 16  1  6  0  0  0
 15 17  1  0  0  0  0
 17 18  1  0  0  0  0
 18 19  1  0  0  0  0
 19 20  1  0  0  0  0
 20 21  1  6  0  0  0
 21 22  1  0  0  0  0
 22 23  1  0  0  0  0
 23 24  1  0  0  0  0
 24 25  1  0  0  0  0
 25 26  4  0  0  0  0
 26 27  1  0  0  0  0
 26 28  4  0  0  0  0
 28 29  4  0  0  0  0
 29 30  4  0  0  0  0
 30 31  1  0  0  0  0
 30 32  4  0  0  0  0
 25 32  4  0  0  0  0
 32 33  1  0  0  0  0
 24 34  2  0  0  0  0
 34 35  1  0  0  0  0
 21 35  1  0  0  0  0
 35 36  2  0  0  0  0
 20 37  1  0  0  0  0
 37 38  4  0  0  0  0
 38 39  4  0  0  0  0
  7 39  1  0  0  0  0
 39 40  4  0  0  0  0
 40 41  4  0  0  0  0
 41 42  4  0  0  0  0
 37 42  4  0  0  0  0
M  END
>  <CdId>
358581

>  <Mol Weight>
595.036

>  <Formula>
C31H29ClF2N4O4

>  <cmpd_chemblid>
CHEMBL4106744

>  <std_type>
Ki

>  <std_value>
4.54

>  <std_unit>
nM

>  <target_id>
CHEMBL2016

>  <target_name>
Coagulation factor IX

>  <organism>
Homo sapiens

>  <target_type>
SINGLE PROTEIN

$$$$

  Mrv0541 08052111042D          

 42 47  0  0  1  0            999 V2000
    3.9849    3.9849    0.0000 C   0  0  0  0  0  0  0  0  0  0  0  0
    4.3974    3.2704    0.0000 C   0  0  2  0  0  0  0  0  0  0  0  0
    5.2224    3.2704    0.0000 C   0  0  0  0  0  0  0  0  0  0  0  0
    5.6349    2.5559    0.0000 C   0  0  0  0  0  0  0  0  0  0  0  0
    6.4599    2.5559    0.0000 C   0  0  0  0  0  0  0  0  0  0  0  0
    6.8724    1.8414    0.0000 C   0  0  2  0  0  0  0  0  0  0  0  0
    7.6974    1.8414    0.0000 N   0  0  0  0  0  0  0  0  0  0  0  0
    8.1099    2.5559    0.0000 C   0  0  0  0  0  0  0  0  0  0  0  0
    8.9349    2.5559    0.0000 C   0  0  0  0  0  0  0  0  0  0  0  0
    9.3474    1.8414    0.0000 C   0  0  0  0  0  0  0  0  0  0  0  0
   10.1724    1.8414    0.0000 C   0  0  0  0  0  0  0  0  0  0  0  0
   10.5849    2.5559    0.0000 C   0  0  0  0  0  0  0  0  0  0  0  0
   10.1724    3.2704    0.0000 C   0  0  0  0  0  0  0  0  0  0  0  0
    9.3474    3.2704    0.0000 C   0  0  0  0  0  0  0  0  0  0  0  0
    8.9349    3.9849    0.0000 C   0  0  0  0  0  0  0  0  0  0  0  0
    9.3474    4.6993    0.0000 N   0  0  0  0  0  0  0  0  0  0  0  0
   10.1724    4.6993    0.0000 C   0  0  0  0  0  0  0  0  0  0  0  0
   10.5849    3.9849    0.0000 C   0  0  0  0  0  0  0  0  0  0  0  0
   11.4099    2.5559    0.0000 C   0  0  0  0  0  0  0  0  0  0  0  0
   11.8224    1.8414    0.0000 C   0  0  0  0  0  0  0  0  0  0  0  0
   11.4099    1.1270    0.0000 C   0  0  0  0  0  0  0  0  0  0  0  0
   11.8224    0.4125    0.0000 Cl  0  0  0  0  0  0  0  0  0  0  0  0
   10.5849    1.1270    0.0000 C   0  0  0  0  0  0  0  0  0  0  0  0
   10.1724    0.4125    0.0000 F   0  0  0  0  0  0  0  0  0  0  0  0
    8.9349    1.1270    0.0000 C   0  0  0  0  0  0  0  0  0  0  0  0
    8.1099    1.1270    0.0000 C   0  0  0  0  0  0  0  0  0  0  0  0
    7.6974    0.4125    0.0000 O   0  0  0  0  0  0  0  0  0  0  0  0
    6.4599    1.1270    0.0000 C   0  0  0  0  0  0  0  0  0  0  0  0
    5.6349    1.1270    0.0000 C   0  0  0  0  0  0  0  0  0  0  0  0
    5.2224    0.4125    0.0000 C   0  0  0  0  0  0  0  0  0  0  0  0
    5.6349   -0.3020    0.0000 C   0  0  0  0  0  0  0  0  0  0  0  0
    6.4599   -0.3020    0.0000 C   0  0  0  0  0  0  0  0  0  0  0  0
    6.8724    0.4125    0.0000 N   0  0  0  0  0  0  0  0  0  0  0  0
    4.3974    0.4125    0.0000 C   0  0  0  0  0  0  0  0  0  0  0  0
    3.9849   -0.3020    0.0000 C   0  0  0  0  0  0  0  0  0  0  0  0
    3.1599   -0.3020    0.0000 C   0  0  0  0  0  0  0  0  0  0  0  0
    2.7474    0.4125    0.0000 C   0  0  0  0  0  0  0  0  0  0  0  0
    3.1599    1.1270    0.0000 C   0  0  0  0  0  0  0  0  0  0  0  0
    3.9849    1.1270    0.0000 C   0  0  0  0  0  0  0  0  0  0  0  0
    4.3974    1.8414    0.0000 N   0  0  0  0  0  0  0  0  0  0  0  0
    3.9849    2.5559    0.0000 C   0  0  0  0  0  0  0  0  0  0  0  0
    3.1599    2.5559    0.0000 O   0  0  0  0  0  0  0  0  0  0  0  0
  2  1  1  6  0  0  0
  2  3  1  0  0  0  0
  3  4  1  0  0  0  0
  4  5  1  0  0  0  0
  5  6  1  0  0  0  0
  6  7  1  6  0  0  0
  7  8  1  0  0  0  0
  8  9  1  0  0  0  0
  9 10  1  0  0  0  0
 10 11  1  0  0  0  0
 11 12  4  0  0  0  0
 12 13  1  0  0  0  0
 13 14  4  0  0  0  0
 14 15  4  0  0  0  0
 15 16  4  0  0  0  0
 16 17  4  0  0  0  0
 17 18  4  0  0  0  0
 13 18  4  0  0  0  0
 12 19  4  0  0  0  0
 19 20  4  0  0  0  0
 20 21  4  0  0  0  0
 21 22  1  0  0  0  0
 21 23  4  0  0  0  0
 11 23  4  0  0  0  0
 23 24  1  0  0  0  0
 10 25  2  0  0  0  0
 25 26  1  0  0  0  0
  7 26  1  0  0  0  0
 26 27  2  0  0  0  0
  6 28  1  0  0  0  0
 28 29  4  0  0  0  0
 29 30  4  0  0  0  0
 30 31  4  0  0  0  0
 31 32  4  0  0  0  0
 32 33  4  0  0  0  0
 28 33  4  0  0  0  0
 30 34  1  0  0  0  0
 34 35  4  0  0  0  0
 35 36  4  0  0  0  0
 36 37  4  0  0  0  0
 37 38  4  0  0  0  0
 38 39  4  0  0  0  0
 34 39  4  0  0  0  0
 39 40  1  0  0  0  0
 40 41  1  0  0  0  0
  2 41  1  0  0  0  0
 41 42  2  0  0  0  0
M  END
>  <CdId>
358582

>  <Mol Weight>
581.079

>  <Formula>
C34H30ClFN4O2

>  <cmpd_chemblid>
CHEMBL4113703

>  <std_type>
Ki

>  <std_value>
16.49

>  <std_unit>
nM

>  <target_id>
CHEMBL2016

>  <target_name>
Coagulation factor IX

>  <organism>
Homo sapiens

>  <target_type>
SINGLE PROTEIN

$$$$

  Mrv0541 08052111042D          

 43 47  0  0  1  0            999 V2000
    8.6329   -2.2539    0.0000 C   0  0  0  0  0  0  0  0  0  0  0  0
    8.2204   -1.5395    0.0000 O   0  0  0  0  0  0  0  0  0  0  0  0
    7.3954   -1.5395    0.0000 C   0  0  0  0  0  0  0  0  0  0  0  0
    6.9829   -2.2539    0.0000 O   0  0  0  0  0  0  0  0  0  0  0  0
    6.9829   -0.8250    0.0000 N   0  0  0  0  0  0  0  0  0  0  0  0
    6.1579   -0.8250    0.0000 C   0  0  0  0  0  0  0  0  0  0  0  0
    5.7454   -0.1105    0.0000 C   0  0  0  0  0  0  0  0  0  0  0  0
    4.9204   -0.1105    0.0000 C   0  0  0  0  0  0  0  0  0  0  0  0
    4.5079   -0.8250    0.0000 C   0  0  0  0  0  0  0  0  0  0  0  0
    4.9204   -1.5395    0.0000 C   0  0  0  0  0  0  0  0  0  0  0  0
    5.7454   -1.5395    0.0000 C   0  0  0  0  0  0  0  0  0  0  0  0
    4.5079   -2.2539    0.0000 N   0  0  0  0  0  0  0  0  0  0  0  0
    4.9204   -2.9684    0.0000 C   0  0  0  0  0  0  0  0  0  0  0  0
    5.7454   -2.9684    0.0000 O   0  0  0  0  0  0  0  0  0  0  0  0
    4.5079   -3.6829    0.0000 C   0  0  2  0  0  0  0  0  0  0  0  0
    4.9204   -4.3974    0.0000 C   0  0  0  0  0  0  0  0  0  0  0  0
    3.6829   -3.6829    0.0000 C   0  0  0  0  0  0  0  0  0  0  0  0
    3.2704   -2.9684    0.0000 C   0  0  0  0  0  0  0  0  0  0  0  0
    2.4454   -2.9684    0.0000 C   0  0  0  0  0  0  0  0  0  0  0  0
    2.0329   -2.2539    0.0000 C   0  0  2  0  0  0  0  0  0  0  0  0
    1.2079   -2.2539    0.0000 N   0  0  0  0  0  0  0  0  0  0  0  0
    0.7954   -2.9684    0.0000 C   0  0  0  0  0  0  0  0  0  0  0  0
   -0.0296   -2.9684    0.0000 C   0  0  0  0  0  0  0  0  0  0  0  0
   -0.4421   -2.2539    0.0000 C   0  0  0  0  0  0  0  0  0  0  0  0
   -1.2671   -2.2539    0.0000 C   0  0  0  0  0  0  0  0  0  0  0  0
   -1.6796   -2.9684    0.0000 C   0  0  0  0  0  0  0  0  0  0  0  0
   -1.2671   -3.6829    0.0000 C   0  0  0  0  0  0  0  0  0  0  0  0
   -0.8546   -4.3974    0.0000 N   0  0  0  0  0  0  0  0  0  0  0  0
   -2.5046   -2.9684    0.0000 C   0  0  0  0  0  0  0  0  0  0  0  0
   -2.9171   -2.2539    0.0000 C   0  0  0  0  0  0  0  0  0  0  0  0
   -2.5046   -1.5395    0.0000 C   0  0  0  0  0  0  0  0  0  0  0  0
   -2.9171   -0.8250    0.0000 Cl  0  0  0  0  0  0  0  0  0  0  0  0
   -1.6796   -1.5395    0.0000 C   0  0  0  0  0  0  0  0  0  0  0  0
   -1.2671   -0.8250    0.0000 F   0  0  0  0  0  0  0  0  0  0  0  0
   -0.0296   -1.5395    0.0000 C   0  0  0  0  0  0  0  0  0  0  0  0
    0.7954   -1.5395    0.0000 C   0  0  0  0  0  0  0  0  0  0  0  0
    1.2079   -0.8250    0.0000 O   0  0  0  0  0  0  0  0  0  0  0  0
    2.4454   -1.5395    0.0000 C   0  0  0  0  0  0  0  0  0  0  0  0
    2.0329   -0.8250    0.0000 C   0  0  0  0  0  0  0  0  0  0  0  0
    2.4454   -0.1105    0.0000 C   0  0  0  0  0  0  0  0  0  0  0  0
    3.2704   -0.1105    0.0000 N   0  0  0  0  0  0  0  0  0  0  0  0
    3.6829   -0.8250    0.0000 C   0  0  0  0  0  0  0  0  0  0  0  0
    3.2704   -1.5395    0.0000 C   0  0  0  0  0  0  0  0  0  0  0  0
  1  2  1  0  0  0  0
  2  3  1  0  0  0  0
  3  4  2  0  0  0  0
  3  5  1  0  0  0  0
  5  6  1  0  0  0  0
  6  7  4  0  0  0  0
  7  8  4  0  0  0  0
  8  9  4  0  0  0  0
  9 10  4  0  0  0  0
 10 11  4  0  0  0  0
  6 11  4  0  0  0  0
 10 12  1  0  0  0  0
 12 13  1  0  0  0  0
 13 14  2  0  0  0  0
 13 15  1  0  0  0  0
 15 16  1  6  0  0  0
 15 17  1  0  0  0  0
 17 18  1  0  0  0  0
 18 19  1  0  0  0  0
 19 20  1  0  0  0  0
 20 21  1  6  0  0  0
 21 22  1  0  0  0  0
 22 23  1  0  0  0  0
 23 24  1  0  0  0  0
 24 25  1  0  0  0  0
 25 26  4  0  0  0  0
 26 27  1  0  0  0  0
 27 28  3  0  0  0  0
 26 29  4  0  0  0  0
 29 30  4  0  0  0  0
 30 31  4  0  0  0  0
 31 32  1  0  0  0  0
 31 33  4  0  0  0  0
 25 33  4  0  0  0  0
 33 34  1  0  0  0  0
 24 35  2  0  0  0  0
 35 36  1  0  0  0  0
 21 36  1  0  0  0  0
 36 37  2  0  0  0  0
 20 38  1  0  0  0  0
 38 39  4  0  0  0  0
 39 40  4  0  0  0  0
 40 41  4  0  0  0  0
 41 42  4  0  0  0  0
  9 42  1  0  0  0  0
 42 43  4  0  0  0  0
 38 43  4  0  0  0  0
M  END
>  <CdId>
358583

>  <Mol Weight>
602.055

>  <Formula>
C32H29ClFN5O4

>  <cmpd_chemblid>
CHEMBL4110901

>  <std_type>
Ki

>  <std_value>
0.15

>  <std_unit>
nM

>  <target_id>
CHEMBL2016

>  <target_name>
Coagulation factor IX

>  <organism>
Homo sapiens

>  <target_type>
SINGLE PROTEIN

$$$$

  Mrv0541 08052111042D          

 35 38  0  0  0  0            999 V2000
   -0.7145   -6.1875    0.0000 C   0  0  0  0  0  0  0  0  0  0  0  0
   -1.4289   -5.7750    0.0000 N   0  0  0  0  0  0  0  0  0  0  0  0
   -2.1434   -6.1875    0.0000 C   0  0  0  0  0  0  0  0  0  0  0  0
   -1.4289   -4.9500    0.0000 C   0  0  0  0  0  0  0  0  0  0  0  0
   -2.1434   -4.5375    0.0000 C   0  0  0  0  0  0  0  0  0  0  0  0
   -2.8579   -4.9500    0.0000 C   0  0  0  0  0  0  0  0  0  0  0  0
   -3.5724   -4.5375    0.0000 C   0  0  0  0  0  0  0  0  0  0  0  0
   -3.5724   -3.7125    0.0000 C   0  0  0  0  0  0  0  0  0  0  0  0
   -2.8579   -3.3000    0.0000 C   0  0  0  0  0  0  0  0  0  0  0  0
   -2.1434   -3.7125    0.0000 C   0  0  0  0  0  0  0  0  0  0  0  0
   -1.4289   -3.3000    0.0000 N   0  0  0  0  0  0  0  0  0  0  0  0
   -0.7145   -3.7125    0.0000 C   0  0  0  0  0  0  0  0  0  0  0  0
   -0.7145   -4.5375    0.0000 O   0  0  0  0  0  0  0  0  0  0  0  0
    0.0000   -3.3000    0.0000 O   0  0  0  0  0  0  0  0  0  0  0  0
    0.7145   -3.7125    0.0000 C   0  0  0  0  0  0  0  0  0  0  0  0
    1.4289   -3.3000    0.0000 C   0  0  0  0  0  0  0  0  0  0  0  0
    2.1434   -3.7125    0.0000 O   0  0  0  0  0  0  0  0  0  0  0  0
    2.8579   -3.3000    0.0000 C   0  0  0  0  0  0  0  0  0  0  0  0
    2.8579   -2.4750    0.0000 C   0  0  0  0  0  0  0  0  0  0  0  0
    3.5724   -2.0625    0.0000 C   0  0  0  0  0  0  0  0  0  0  0  0
    4.2868   -2.4750    0.0000 C   0  0  0  0  0  0  0  0  0  0  0  0
    4.2868   -3.3000    0.0000 C   0  0  0  0  0  0  0  0  0  0  0  0
    4.8999   -3.8520    0.0000 S   0  0  0  0  0  0  0  0  0  0  0  0
    4.5644   -4.6057    0.0000 C   0  0  0  0  0  0  0  0  0  0  0  0
    4.9769   -5.3202    0.0000 C   0  0  0  0  0  0  0  0  0  0  0  0
    5.8019   -5.3202    0.0000 N   0  0  0  0  0  0  0  0  0  0  0  0
    4.5644   -6.0346    0.0000 N   0  0  0  0  0  0  0  0  0  0  0  0
    3.7439   -4.5195    0.0000 C   0  0  0  0  0  0  0  0  0  0  0  0
    3.5724   -3.7125    0.0000 C   0  0  0  0  0  0  0  0  0  0  0  0
    1.4289   -2.4750    0.0000 C   0  0  0  0  0  0  0  0  0  0  0  0
    0.7145   -2.0625    0.0000 C   0  0  0  0  0  0  0  0  0  0  0  0
    0.7145   -1.2375    0.0000 C   0  0  0  0  0  0  0  0  0  0  0  0
    1.4289   -0.8250    0.0000 C   0  0  0  0  0  0  0  0  0  0  0  0
    2.1434   -1.2375    0.0000 C   0  0  0  0  0  0  0  0  0  0  0  0
    2.1434   -2.0625    0.0000 C   0  0  0  0  0  0  0  0  0  0  0  0
  1  2  1  0  0  0  0
  2  3  1  0  0  0  0
  2  4  1  0  0  0  0
  4  5  1  0  0  0  0
  5  6  4  0  0  0  0
  6  7  4  0  0  0  0
  7  8  4  0  0  0  0
  8  9  4  0  0  0  0
  9 10  4  0  0  0  0
  5 10  4  0  0  0  0
 10 11  1  0  0  0  0
 11 12  1  0  0  0  0
 12 13  2  0  0  0  0
 12 14  1  0  0  0  0
 14 15  1  0  0  0  0
 15 16  1  0  0  0  0
 16 17  1  0  0  0  0
 17 18  1  0  0  0  0
 18 19  4  0  0  0  0
 19 20  4  0  0  0  0
 20 21  4  0  0  0  0
 21 22  4  0  0  0  0
 22 23  4  0  0  0  0
 23 24  4  0  0  0  0
 24 25  1  0  0  0  0
 25 26  2  0  0  0  0
 25 27  1  0  0  0  0
 24 28  4  0  0  0  0
 28 29  4  0  0  0  0
 18 29  4  0  0  0  0
 22 29  4  0  0  0  0
 16 30  1  0  0  0  0
 30 31  4  0  0  0  0
 31 32  4  0  0  0  0
 32 33  4  0  0  0  0
 33 34  4  0  0  0  0
 34 35  4  0  0  0  0
 30 35  4  0  0  0  0
M  END
>  <CdId>
358586

>  <Mol Weight>
488.601

>  <Formula>
C27H28N4O3S

>  <cmpd_chemblid>
CHEMBL597758

>  <std_type>
Ki

>  <std_value>
8.0

>  <std_unit>
nM

>  <target_id>
CHEMBL2016

>  <target_name>
Coagulation factor IX

>  <organism>
Homo sapiens

>  <target_type>
SINGLE PROTEIN

$$$$

  Mrv0541 08052111042D          

 32 35  0  0  0  0            999 V2000
   -5.3649   -1.3480    0.0000 N   0  0  0  0  0  0  0  0  0  0  0  0
   -4.9524   -2.0625    0.0000 C   0  0  0  0  0  0  0  0  0  0  0  0
   -5.3649   -2.7770    0.0000 N   0  0  0  0  0  0  0  0  0  0  0  0
   -4.1274   -2.0625    0.0000 C   0  0  0  0  0  0  0  0  0  0  0  0
   -3.6425   -1.3951    0.0000 C   0  0  0  0  0  0  0  0  0  0  0  0
   -2.8579   -1.6500    0.0000 C   0  0  0  0  0  0  0  0  0  0  0  0
   -2.1434   -1.2375    0.0000 C   0  0  0  0  0  0  0  0  0  0  0  0
   -2.1434   -0.4125    0.0000 O   0  0  0  0  0  0  0  0  0  0  0  0
   -1.4289   -0.0000    0.0000 C   0  0  0  0  0  0  0  0  0  0  0  0
   -0.7145   -0.4125    0.0000 C   0  0  0  0  0  0  0  0  0  0  0  0
    0.0000   -0.0000    0.0000 O   0  0  0  0  0  0  0  0  0  0  0  0
    0.7145   -0.4125    0.0000 C   0  0  0  0  0  0  0  0  0  0  0  0
    0.7145   -1.2375    0.0000 O   0  0  0  0  0  0  0  0  0  0  0  0
    1.4289   -0.0000    0.0000 N   0  0  0  0  0  0  0  0  0  0  0  0
    2.1434   -0.4125    0.0000 C   0  0  0  0  0  0  0  0  0  0  0  0
    2.8579   -0.0000    0.0000 C   0  0  0  0  0  0  0  0  0  0  0  0
    3.5724   -0.4125    0.0000 C   0  0  0  0  0  0  0  0  0  0  0  0
    3.5724   -1.2375    0.0000 C   0  0  0  0  0  0  0  0  0  0  0  0
    2.8579   -1.6500    0.0000 C   0  0  0  0  0  0  0  0  0  0  0  0
    2.1434   -1.2375    0.0000 C   0  0  0  0  0  0  0  0  0  0  0  0
   -1.4289    0.8250    0.0000 C   0  0  0  0  0  0  0  0  0  0  0  0
   -2.1434    1.2375    0.0000 C   0  0  0  0  0  0  0  0  0  0  0  0
   -2.1434    2.0625    0.0000 C   0  0  0  0  0  0  0  0  0  0  0  0
   -1.4289    2.4750    0.0000 C   0  0  0  0  0  0  0  0  0  0  0  0
   -0.7145    2.0625    0.0000 C   0  0  0  0  0  0  0  0  0  0  0  0
   -0.7145    1.2375    0.0000 C   0  0  0  0  0  0  0  0  0  0  0  0
   -1.4289   -1.6500    0.0000 C   0  0  0  0  0  0  0  0  0  0  0  0
   -1.4289   -2.4750    0.0000 C   0  0  0  0  0  0  0  0  0  0  0  0
   -0.7145   -2.8875    0.0000 F   0  0  0  0  0  0  0  0  0  0  0  0
   -2.1434   -2.8875    0.0000 C   0  0  0  0  0  0  0  0  0  0  0  0
   -2.8579   -2.4750    0.0000 C   0  0  0  0  0  0  0  0  0  0  0  0
   -3.6425   -2.7299    0.0000 S   0  0  0  0  0  0  0  0  0  0  0  0
  1  2  2  0  0  0  0
  2  3  1  0  0  0  0
  2  4  1  0  0  0  0
  4  5  4  0  0  0  0
  5  6  4  0  0  0  0
  6  7  4  0  0  0  0
  7  8  1  0  0  0  0
  8  9  1  0  0  0  0
  9 10  1  0  0  0  0
 10 11  1  0  0  0  0
 11 12  1  0  0  0  0
 12 13  2  0  0  0  0
 12 14  1  0  0  0  0
 14 15  1  0  0  0  0
 15 16  4  0  0  0  0
 16 17  4  0  0  0  0
 17 18  4  0  0  0  0
 18 19  4  0  0  0  0
 19 20  4  0  0  0  0
 15 20  4  0  0  0  0
  9 21  1  0  0  0  0
 21 22  4  0  0  0  0
 22 23  4  0  0  0  0
 23 24  4  0  0  0  0
 24 25  4  0  0  0  0
 25 26  4  0  0  0  0
 21 26  4  0  0  0  0
  7 27  4  0  0  0  0
 27 28  4  0  0  0  0
 28 29  1  0  0  0  0
 28 30  4  0  0  0  0
 30 31  4  0  0  0  0
  6 31  4  0  0  0  0
 31 32  4  0  0  0  0
  4 32  4  0  0  0  0
M  END
>  <CdId>
358587

>  <Mol Weight>
449.497

>  <Formula>
C24H20FN3O3S

>  <cmpd_chemblid>
CHEMBL602083

>  <std_type>
Ki

>  <std_value>
15.5

>  <std_unit>
nM

>  <target_id>
CHEMBL2016

>  <target_name>
Coagulation factor IX

>  <organism>
Homo sapiens

>  <target_type>
SINGLE PROTEIN

$$$$

  Mrv0541 08052111042D          

 28 31  0  0  0  0            999 V2000
   -0.5837   -1.4124    0.0000 N   0  0  0  0  0  0  0  0  0  0  0  0
   -0.1712   -0.6979    0.0000 C   0  0  0  0  0  0  0  0  0  0  0  0
   -0.5837    0.0165    0.0000 N   0  0  0  0  0  0  0  0  0  0  0  0
    0.6538   -0.6979    0.0000 C   0  0  0  0  0  0  0  0  0  0  0  0
    1.1387   -0.0305    0.0000 C   0  0  0  0  0  0  0  0  0  0  0  0
    1.9233   -0.2854    0.0000 C   0  0  0  0  0  0  0  0  0  0  0  0
    2.6378    0.1271    0.0000 C   0  0  0  0  0  0  0  0  0  0  0  0
    3.3523   -0.2854    0.0000 C   0  0  0  0  0  0  0  0  0  0  0  0
    4.0668    0.1271    0.0000 C   0  0  0  0  0  0  0  0  0  0  0  0
    4.0668    0.9521    0.0000 C   0  0  0  0  0  0  0  0  0  0  0  0
    4.7812    1.3646    0.0000 C   0  0  0  0  0  0  0  0  0  0  0  0
    5.4957    0.9521    0.0000 C   0  0  0  0  0  0  0  0  0  0  0  0
    5.4957    0.1271    0.0000 C   0  0  0  0  0  0  0  0  0  0  0  0
    6.2102   -0.2854    0.0000 O   0  0  0  0  0  0  0  0  0  0  0  0
    6.9246    0.1271    0.0000 C   0  0  0  0  0  0  0  0  0  0  0  0
    7.6391   -0.2854    0.0000 C   0  0  0  0  0  0  0  0  0  0  0  0
    8.3536    0.1271    0.0000 C   0  0  0  0  0  0  0  0  0  0  0  0
    9.0681   -0.2854    0.0000 C   0  0  0  0  0  0  0  0  0  0  0  0
    9.0681   -1.1104    0.0000 C   0  0  0  0  0  0  0  0  0  0  0  0
    9.7825   -1.5229    0.0000 F   0  0  0  0  0  0  0  0  0  0  0  0
    8.3536   -1.5229    0.0000 C   0  0  0  0  0  0  0  0  0  0  0  0
    8.3536   -2.3479    0.0000 Cl  0  0  0  0  0  0  0  0  0  0  0  0
    7.6391   -1.1104    0.0000 C   0  0  0  0  0  0  0  0  0  0  0  0
    4.7812   -0.2854    0.0000 C   0  0  0  0  0  0  0  0  0  0  0  0
    3.3523   -1.1104    0.0000 C   0  0  0  0  0  0  0  0  0  0  0  0
    2.6378   -1.5229    0.0000 C   0  0  0  0  0  0  0  0  0  0  0  0
    1.9233   -1.1104    0.0000 C   0  0  0  0  0  0  0  0  0  0  0  0
    1.1387   -1.3654    0.0000 S   0  0  0  0  0  0  0  0  0  0  0  0
  1  2  2  0  0  0  0
  2  3  1  0  0  0  0
  2  4  1  0  0  0  0
  4  5  4  0  0  0  0
  5  6  4  0  0  0  0
  6  7  4  0  0  0  0
  7  8  4  0  0  0  0
  8  9  1  0  0  0  0
  9 10  4  0  0  0  0
 10 11  4  0  0  0  0
 11 12  4  0  0  0  0
 12 13  4  0  0  0  0
 13 14  1  0  0  0  0
 14 15  1  0  0  0  0
 15 16  1  0  0  0  0
 16 17  4  0  0  0  0
 17 18  4  0  0  0  0
 18 19  4  0  0  0  0
 19 20  1  0  0  0  0
 19 21  4  0  0  0  0
 21 22  1  0  0  0  0
 21 23  4  0  0  0  0
 16 23  4  0  0  0  0
 13 24  4  0  0  0  0
  9 24  4  0  0  0  0
  8 25  4  0  0  0  0
 25 26  4  0  0  0  0
 26 27  4  0  0  0  0
  6 27  4  0  0  0  0
 27 28  4  0  0  0  0
  4 28  4  0  0  0  0
M  END
>  <CdId>
358588

>  <Mol Weight>
410.892

>  <Formula>
C22H16ClFN2OS

>  <cmpd_chemblid>
CHEMBL596767

>  <std_type>
Ki

>  <std_value>
31.0

>  <std_unit>
nM

>  <target_id>
CHEMBL2016

>  <target_name>
Coagulation factor IX

>  <organism>
Homo sapiens

>  <target_type>
SINGLE PROTEIN

$$$$

  Mrv0541 08052111042D          

 45 50  0  0  1  0            999 V2000
    8.6329   -2.2539    0.0000 C   0  0  0  0  0  0  0  0  0  0  0  0
    8.2204   -1.5395    0.0000 O   0  0  0  0  0  0  0  0  0  0  0  0
    7.3954   -1.5395    0.0000 C   0  0  0  0  0  0  0  0  0  0  0  0
    6.9829   -2.2539    0.0000 O   0  0  0  0  0  0  0  0  0  0  0  0
    6.9829   -0.8250    0.0000 N   0  0  0  0  0  0  0  0  0  0  0  0
    6.1579   -0.8250    0.0000 C   0  0  0  0  0  0  0  0  0  0  0  0
    5.7454   -0.1105    0.0000 C   0  0  0  0  0  0  0  0  0  0  0  0
    4.9204   -0.1105    0.0000 C   0  0  0  0  0  0  0  0  0  0  0  0
    4.5079   -0.8250    0.0000 C   0  0  0  0  0  0  0  0  0  0  0  0
    4.9204   -1.5395    0.0000 C   0  0  0  0  0  0  0  0  0  0  0  0
    5.7454   -1.5395    0.0000 C   0  0  0  0  0  0  0  0  0  0  0  0
    4.5079   -2.2539    0.0000 N   0  0  0  0  0  0  0  0  0  0  0  0
    4.9204   -2.9684    0.0000 C   0  0  0  0  0  0  0  0  0  0  0  0
    5.7454   -2.9684    0.0000 O   0  0  0  0  0  0  0  0  0  0  0  0
    4.5079   -3.6829    0.0000 C   0  0  2  0  0  0  0  0  0  0  0  0
    4.9204   -4.3974    0.0000 C   0  0  0  0  0  0  0  0  0  0  0  0
    3.6829   -3.6829    0.0000 C   0  0  0  0  0  0  0  0  0  0  0  0
    3.2704   -2.9684    0.0000 C   0  0  0  0  0  0  0  0  0  0  0  0
    2.4454   -2.9684    0.0000 C   0  0  0  0  0  0  0  0  0  0  0  0
    2.0329   -2.2539    0.0000 C   0  0  2  0  0  0  0  0  0  0  0  0
    1.2079   -2.2539    0.0000 N   0  0  0  0  0  0  0  0  0  0  0  0
    0.7954   -2.9684    0.0000 C   0  0  0  0  0  0  0  0  0  0  0  0
   -0.0296   -2.9684    0.0000 C   0  0  0  0  0  0  0  0  0  0  0  0
   -0.4421   -2.2539    0.0000 C   0  0  0  0  0  0  0  0  0  0  0  0
   -1.2671   -2.2539    0.0000 C   0  0  0  0  0  0  0  0  0  0  0  0
   -1.7520   -2.9214    0.0000 C   0  0  0  0  0  0  0  0  0  0  0  0
   -2.5367   -2.6664    0.0000 N   0  0  0  0  0  0  0  0  0  0  0  0
   -2.5367   -1.8414    0.0000 C   0  0  0  0  0  0  0  0  0  0  0  0
   -1.7520   -1.5865    0.0000 N   0  0  0  0  0  0  0  0  0  0  0  0
   -1.4971   -0.8019    0.0000 C   0  0  0  0  0  0  0  0  0  0  0  0
   -2.0491   -0.1888    0.0000 C   0  0  0  0  0  0  0  0  0  0  0  0
   -2.8561   -0.3603    0.0000 C   0  0  0  0  0  0  0  0  0  0  0  0
   -3.4081    0.2528    0.0000 C   0  0  0  0  0  0  0  0  0  0  0  0
   -3.1532    1.0374    0.0000 C   0  0  0  0  0  0  0  0  0  0  0  0
   -2.3462    1.2089    0.0000 C   0  0  0  0  0  0  0  0  0  0  0  0
   -1.7942    0.5958    0.0000 C   0  0  0  0  0  0  0  0  0  0  0  0
   -0.0296   -1.5395    0.0000 C   0  0  0  0  0  0  0  0  0  0  0  0
    0.7954   -1.5395    0.0000 C   0  0  0  0  0  0  0  0  0  0  0  0
    1.2079   -0.8250    0.0000 O   0  0  0  0  0  0  0  0  0  0  0  0
    2.4454   -1.5395    0.0000 C   0  0  0  0  0  0  0  0  0  0  0  0
    3.2704   -1.5395    0.0000 C   0  0  0  0  0  0  0  0  0  0  0  0
    3.6829   -0.8250    0.0000 C   0  0  0  0  0  0  0  0  0  0  0  0
    3.2704   -0.1105    0.0000 C   0  0  0  0  0  0  0  0  0  0  0  0
    2.4454   -0.1105    0.0000 C   0  0  0  0  0  0  0  0  0  0  0  0
    2.0329   -0.8250    0.0000 N   0  0  0  0  0  0  0  0  0  0  0  0
  1  2  1  0  0  0  0
  2  3  1  0  0  0  0
  3  4  2  0  0  0  0
  3  5  1  0  0  0  0
  5  6  1  0  0  0  0
  6  7  4  0  0  0  0
  7  8  4  0  0  0  0
  8  9  4  0  0  0  0
  9 10  4  0  0  0  0
 10 11  4  0  0  0  0
  6 11  4  0  0  0  0
 10 12  1  0  0  0  0
 12 13  1  0  0  0  0
 13 14  2  0  0  0  0
 13 15  1  0  0  0  0
 15 16  1  6  0  0  0
 15 17  1  0  0  0  0
 17 18  1  0  0  0  0
 18 19  1  0  0  0  0
 19 20  1  0  0  0  0
 20 21  1  6  0  0  0
 21 22  1  0  0  0  0
 22 23  1  0  0  0  0
 23 24  1  0  0  0  0
 24 25  1  0  0  0  0
 25 26  4  0  0  0  0
 26 27  4  0  0  0  0
 27 28  4  0  0  0  0
 28 29  4  0  0  0  0
 25 29  4  0  0  0  0
 29 30  1  0  0  0  0
 30 31  1  0  0  0  0
 31 32  4  0  0  0  0
 32 33  4  0  0  0  0
 33 34  4  0  0  0  0
 34 35  4  0  0  0  0
 35 36  4  0  0  0  0
 31 36  4  0  0  0  0
 24 37  2  0  0  0  0
 37 38  1  0  0  0  0
 21 38  1  0  0  0  0
 38 39  2  0  0  0  0
 20 40  1  0  0  0  0
 40 41  4  0  0  0  0
 41 42  4  0  0  0  0
  9 42  1  0  0  0  0
 42 43  4  0  0  0  0
 43 44  4  0  0  0  0
 44 45  4  0  0  0  0
 40 45  4  0  0  0  0
M  END
>  <CdId>
358589

>  <Mol Weight>
604.6981

>  <Formula>
C35H36N6O4

>  <cmpd_chemblid>
CHEMBL4109472

>  <std_type>
Ki

>  <std_value>
434.2

>  <std_unit>
nM

>  <target_id>
CHEMBL2016

>  <target_name>
Coagulation factor IX

>  <organism>
Homo sapiens

>  <target_type>
SINGLE PROTEIN

$$$$

  Mrv0541 08052111042D          

 38 43  0  0  1  0            999 V2000
    4.7674    0.7556    0.0000 C   0  0  0  0  0  0  0  0  0  0  0  0
    3.9604    0.5840    0.0000 C   0  0  0  0  0  0  0  0  0  0  0  0
    3.7054   -0.2006    0.0000 C   0  0  0  0  0  0  0  0  0  0  0  0
    2.8985   -0.3721    0.0000 C   0  0  0  0  0  0  0  0  0  0  0  0
    2.3464    0.2410    0.0000 C   0  0  0  0  0  0  0  0  0  0  0  0
    2.6014    1.0256    0.0000 C   0  0  0  0  0  0  0  0  0  0  0  0
    3.4084    1.1971    0.0000 C   0  0  0  0  0  0  0  0  0  0  0  0
    1.9339    1.5105    0.0000 C   0  0  0  0  0  0  0  0  0  0  0  0
    1.9339    2.3355    0.0000 C   0  0  0  0  0  0  0  0  0  0  0  0
    1.9339    3.1605    0.0000 N   0  0  0  0  0  0  0  0  0  0  0  0
    1.2665    1.0256    0.0000 C   0  0  0  0  0  0  0  0  0  0  0  0
    1.5214    0.2410    0.0000 N   0  0  0  0  0  0  0  0  0  0  0  0
    0.9694   -0.3721    0.0000 C   0  0  0  0  0  0  0  0  0  0  0  0
    0.1624   -0.2006    0.0000 C   0  0  1  0  0  0  0  0  0  0  0  0
    0.1336   -1.0251    0.0000 N   0  0  0  0  0  0  0  0  0  0  0  0
    0.8333   -1.4623    0.0000 C   0  0  0  0  0  0  0  0  0  0  0  0
    1.5617   -1.0750    0.0000 O   0  0  0  0  0  0  0  0  0  0  0  0
    0.8045   -2.2868    0.0000 C   0  0  0  0  0  0  0  0  0  0  0  0
    1.5041   -2.7240    0.0000 C   0  0  0  0  0  0  0  0  0  0  0  0
    2.2326   -2.3366    0.0000 Cl  0  0  0  0  0  0  0  0  0  0  0  0
    1.4753   -3.5485    0.0000 C   0  0  0  0  0  0  0  0  0  0  0  0
    0.7469   -3.9358    0.0000 C   0  0  0  0  0  0  0  0  0  0  0  0
    0.7181   -4.7603    0.0000 N   0  0  0  0  0  0  0  0  0  0  0  0
    1.3682   -5.2682    0.0000 C   0  0  0  0  0  0  0  0  0  0  0  0
    1.0861   -6.0434    0.0000 N   0  0  0  0  0  0  0  0  0  0  0  0
    0.2616   -6.0146    0.0000 N   0  0  0  0  0  0  0  0  0  0  0  0
    0.0342   -5.2216    0.0000 C   0  0  0  0  0  0  0  0  0  0  0  0
    0.0473   -3.4986    0.0000 C   0  0  0  0  0  0  0  0  0  0  0  0
    0.0761   -2.6741    0.0000 C   0  0  0  0  0  0  0  0  0  0  0  0
   -0.6236   -2.2369    0.0000 Cl  0  0  0  0  0  0  0  0  0  0  0  0
   -0.6545   -0.3154    0.0000 C   0  0  0  0  0  0  0  0  0  0  0  0
   -0.9636   -1.0803    0.0000 C   0  0  0  0  0  0  0  0  0  0  0  0
   -1.7806   -1.1952    0.0000 C   0  0  0  0  0  0  0  0  0  0  0  0
   -2.2885   -0.5450    0.0000 C   0  0  0  0  0  0  0  0  0  0  0  0
   -1.9794    0.2199    0.0000 C   0  0  0  0  0  0  0  0  0  0  0  0
   -1.1625    0.3347    0.0000 C   0  0  0  0  0  0  0  0  0  0  0  0
   -0.0925    0.5840    0.0000 C   0  0  0  0  0  0  0  0  0  0  0  0
    0.4595    1.1971    0.0000 C   0  0  0  0  0  0  0  0  0  0  0  0
  1  2  1  0  0  0  0
  2  3  4  0  0  0  0
  3  4  4  0  0  0  0
  4  5  4  0  0  0  0
  5  6  4  0  0  0  0
  6  7  4  0  0  0  0
  2  7  4  0  0  0  0
  6  8  4  0  0  0  0
  8  9  1  0  0  0  0
  9 10  3  0  0  0  0
  8 11  4  0  0  0  0
 11 12  4  0  0  0  0
  5 12  4  0  0  0  0
 12 13  1  0  0  0  0
 13 14  1  0  0  0  0
 14 15  1  6  0  0  0
 15 16  1  0  0  0  0
 16 17  2  0  0  0  0
 16 18  1  0  0  0  0
 18 19  4  0  0  0  0
 19 20  1  0  0  0  0
 19 21  4  0  0  0  0
 21 22  4  0  0  0  0
 22 23  1  0  0  0  0
 23 24  4  0  0  0  0
 24 25  4  0  0  0  0
 25 26  4  0  0  0  0
 26 27  4  0  0  0  0
 23 27  4  0  0  0  0
 22 28  4  0  0  0  0
 28 29  4  0  0  0  0
 18 29  4  0  0  0  0
 29 30  1  0  0  0  0
 14 31  1  1  0  0  0
 31 32  4  0  0  0  0
 32 33  4  0  0  0  0
 33 34  4  0  0  0  0
 34 35  4  0  0  0  0
 35 36  4  0  0  0  0
 31 36  4  0  0  0  0
 14 37  1  0  0  0  0
 37 38  1  0  0  0  0
 11 38  1  0  0  0  0
M  END
>  <CdId>
358590

>  <Mol Weight>
541.431

>  <Formula>
C29H22Cl2N6O

>  <cmpd_chemblid>
CHEMBL3628960

>  <std_type>
Ki

>  <std_value>
5.1

>  <std_unit>
nM

>  <target_id>
CHEMBL2016

>  <target_name>
Coagulation factor IX

>  <organism>
Homo sapiens

>  <target_type>
SINGLE PROTEIN

$$$$

  Mrv0541 08052111042D          

 41 45  0  0  1  0            999 V2000
    8.6329   -2.2539    0.0000 C   0  0  0  0  0  0  0  0  0  0  0  0
    8.2204   -1.5395    0.0000 O   0  0  0  0  0  0  0  0  0  0  0  0
    7.3954   -1.5395    0.0000 C   0  0  0  0  0  0  0  0  0  0  0  0
    6.9829   -2.2539    0.0000 O   0  0  0  0  0  0  0  0  0  0  0  0
    6.9829   -0.8250    0.0000 N   0  0  0  0  0  0  0  0  0  0  0  0
    6.1579   -0.8250    0.0000 C   0  0  0  0  0  0  0  0  0  0  0  0
    5.7454   -0.1105    0.0000 C   0  0  0  0  0  0  0  0  0  0  0  0
    4.9204   -0.1105    0.0000 C   0  0  0  0  0  0  0  0  0  0  0  0
    4.5079   -0.8250    0.0000 C   0  0  0  0  0  0  0  0  0  0  0  0
    4.9204   -1.5395    0.0000 C   0  0  0  0  0  0  0  0  0  0  0  0
    5.7454   -1.5395    0.0000 C   0  0  0  0  0  0  0  0  0  0  0  0
    4.5079   -2.2539    0.0000 N   0  0  0  0  0  0  0  0  0  0  0  0
    4.9204   -2.9684    0.0000 C   0  0  0  0  0  0  0  0  0  0  0  0
    5.7454   -2.9684    0.0000 O   0  0  0  0  0  0  0  0  0  0  0  0
    4.5079   -3.6829    0.0000 C   0  0  2  0  0  0  0  0  0  0  0  0
    4.9204   -4.3974    0.0000 C   0  0  0  0  0  0  0  0  0  0  0  0
    3.6829   -3.6829    0.0000 C   0  0  0  0  0  0  0  0  0  0  0  0
    3.2704   -2.9684    0.0000 C   0  0  0  0  0  0  0  0  0  0  0  0
    2.4454   -2.9684    0.0000 C   0  0  0  0  0  0  0  0  0  0  0  0
    2.0329   -2.2539    0.0000 C   0  0  2  0  0  0  0  0  0  0  0  0
    1.2079   -2.2539    0.0000 N   0  0  0  0  0  0  0  0  0  0  0  0
    0.7954   -2.9684    0.0000 C   0  0  0  0  0  0  0  0  0  0  0  0
   -0.0296   -2.9684    0.0000 C   0  0  0  0  0  0  0  0  0  0  0  0
   -0.4421   -2.2539    0.0000 C   0  0  0  0  0  0  0  0  0  0  0  0
   -1.2671   -2.2539    0.0000 C   0  0  0  0  0  0  0  0  0  0  0  0
   -1.6796   -2.9684    0.0000 C   0  0  0  0  0  0  0  0  0  0  0  0
   -2.5046   -2.9684    0.0000 C   0  0  0  0  0  0  0  0  0  0  0  0
   -2.9171   -2.2539    0.0000 C   0  0  0  0  0  0  0  0  0  0  0  0
   -2.5046   -1.5395    0.0000 C   0  0  0  0  0  0  0  0  0  0  0  0
   -2.9171   -0.8250    0.0000 O   0  0  0  0  0  0  0  0  0  0  0  0
   -3.7421   -0.8250    0.0000 C   0  0  0  0  0  0  0  0  0  0  0  0
   -1.6796   -1.5395    0.0000 C   0  0  0  0  0  0  0  0  0  0  0  0
   -0.0296   -1.5395    0.0000 C   0  0  0  0  0  0  0  0  0  0  0  0
    0.7954   -1.5395    0.0000 C   0  0  0  0  0  0  0  0  0  0  0  0
    1.2079   -0.8250    0.0000 O   0  0  0  0  0  0  0  0  0  0  0  0
    2.4454   -1.5395    0.0000 C   0  0  0  0  0  0  0  0  0  0  0  0
    3.2704   -1.5395    0.0000 C   0  0  0  0  0  0  0  0  0  0  0  0
    3.6829   -0.8250    0.0000 C   0  0  0  0  0  0  0  0  0  0  0  0
    3.2704   -0.1105    0.0000 C   0  0  0  0  0  0  0  0  0  0  0  0
    2.4454   -0.1105    0.0000 C   0  0  0  0  0  0  0  0  0  0  0  0
    2.0329   -0.8250    0.0000 N   0  0  0  0  0  0  0  0  0  0  0  0
  1  2  1  0  0  0  0
  2  3  1  0  0  0  0
  3  4  2  0  0  0  0
  3  5  1  0  0  0  0
  5  6  1  0  0  0  0
  6  7  4  0  0  0  0
  7  8  4  0  0  0  0
  8  9  4  0  0  0  0
  9 10  4  0  0  0  0
 10 11  4  0  0  0  0
  6 11  4  0  0  0  0
 10 12  1  0  0  0  0
 12 13  1  0  0  0  0
 13 14  2  0  0  0  0
 13 15  1  0  0  0  0
 15 16  1  6  0  0  0
 15 17  1  0  0  0  0
 17 18  1  0  0  0  0
 18 19  1  0  0  0  0
 19 20  1  0  0  0  0
 20 21  1  6  0  0  0
 21 22  1  0  0  0  0
 22 23  1  0  0  0  0
 23 24  1  0  0  0  0
 24 25  1  0  0  0  0
 25 26  4  0  0  0  0
 26 27  4  0  0  0  0
 27 28  4  0  0  0  0
 28 29  4  0  0  0  0
 29 30  1  0  0  0  0
 30 31  1  0  0  0  0
 29 32  4  0  0  0  0
 25 32  4  0  0  0  0
 24 33  2  0  0  0  0
 33 34  1  0  0  0  0
 21 34  1  0  0  0  0
 34 35  2  0  0  0  0
 20 36  1  0  0  0  0
 36 37  4  0  0  0  0
 37 38  4  0  0  0  0
  9 38  1  0  0  0  0
 38 39  4  0  0  0  0
 39 40  4  0  0  0  0
 40 41  4  0  0  0  0
 36 41  4  0  0  0  0
M  END
>  <CdId>
358591

>  <Mol Weight>
554.6362

>  <Formula>
C32H34N4O5

>  <cmpd_chemblid>
CHEMBL4106488

>  <std_type>
Ki

>  <std_value>
424.2

>  <std_unit>
nM

>  <target_id>
CHEMBL2016

>  <target_name>
Coagulation factor IX

>  <organism>
Homo sapiens

>  <target_type>
SINGLE PROTEIN

$$$$

  Mrv0541 08052111042D          

 39 42  0  0  1  0            999 V2000
    2.8579   -3.0789    0.0000 C   0  0  0  0  0  0  0  0  0  0  0  0
    2.0329   -3.0789    0.0000 O   0  0  0  0  0  0  0  0  0  0  0  0
    1.6204   -2.3645    0.0000 C   0  0  0  0  0  0  0  0  0  0  0  0
    0.7954   -2.3645    0.0000 C   0  0  0  0  0  0  0  0  0  0  0  0
    0.3829   -1.6500    0.0000 C   0  0  0  0  0  0  0  0  0  0  0  0
   -0.4421   -1.6500    0.0000 C   0  0  0  0  0  0  0  0  0  0  0  0
   -0.8546   -2.3645    0.0000 N   0  0  0  0  0  0  0  0  0  0  0  0
   -0.8546   -0.9355    0.0000 N   0  0  0  0  0  0  0  0  0  0  0  0
   -0.4421   -0.2211    0.0000 C   0  0  0  0  0  0  0  0  0  0  0  0
    0.3829   -0.2211    0.0000 C   0  0  0  0  0  0  0  0  0  0  0  0
    0.7954   -0.9355    0.0000 C   0  0  0  0  0  0  0  0  0  0  0  0
    1.6204   -0.9355    0.0000 C   0  0  0  0  0  0  0  0  0  0  0  0
    2.0329   -1.6500    0.0000 C   0  0  0  0  0  0  0  0  0  0  0  0
    2.8579   -1.6500    0.0000 C   0  0  0  0  0  0  0  0  0  0  0  0
    3.2704   -0.9355    0.0000 C   0  0  2  0  0  0  0  0  0  0  0  0
    4.0954   -0.9355    0.0000 C   0  0  0  0  0  0  0  0  0  0  0  0
    4.5079   -0.2211    0.0000 O   0  0  0  0  0  0  0  0  0  0  0  0
    4.5079   -1.6500    0.0000 O   0  0  0  0  0  0  0  0  0  0  0  0
    5.3329   -1.6500    0.0000 C   0  0  0  0  0  0  0  0  0  0  0  0
    5.7454   -0.9355    0.0000 C   0  0  0  0  0  0  0  0  0  0  0  0
    5.7454   -2.3645    0.0000 C   0  0  0  0  0  0  0  0  0  0  0  0
    2.8579   -0.2211    0.0000 N   0  0  0  0  0  0  0  0  0  0  0  0
    2.0374   -0.1348    0.0000 C   0  0  0  0  0  0  0  0  0  0  0  0
    1.8659    0.6721    0.0000 C   0  0  0  0  0  0  0  0  0  0  0  0
    2.5803    1.0846    0.0000 C   0  0  2  0  0  0  0  0  0  0  0  0
    2.6666    1.9051    0.0000 N   0  0  0  0  0  0  0  0  0  0  0  0
    1.9991    2.3901    0.0000 S   0  0  0  0  0  0  0  0  0  0  0  0
    2.4841    3.0575    0.0000 O   0  0  0  0  0  0  0  0  0  0  0  0
    1.5142    1.7226    0.0000 O   0  0  0  0  0  0  0  0  0  0  0  0
    1.3317    2.8750    0.0000 C   0  0  0  0  0  0  0  0  0  0  0  0
    0.5471    2.6200    0.0000 C   0  0  0  0  0  0  0  0  0  0  0  0
    0.0622    3.2875    0.0000 N   0  0  0  0  0  0  0  0  0  0  0  0
    0.5471    3.9549    0.0000 C   0  0  0  0  0  0  0  0  0  0  0  0
    0.2921    4.7395    0.0000 N   0  0  0  0  0  0  0  0  0  0  0  0
   -0.5148    4.9111    0.0000 C   0  0  0  0  0  0  0  0  0  0  0  0
    0.8442    5.3526    0.0000 C   0  0  0  0  0  0  0  0  0  0  0  0
    1.3317    3.7000    0.0000 S   0  0  0  0  0  0  0  0  0  0  0  0
    3.1934    0.5326    0.0000 C   0  0  0  0  0  0  0  0  0  0  0  0
    4.0004    0.7041    0.0000 O   0  0  0  0  0  0  0  0  0  0  0  0
  1  2  1  0  0  0  0
  2  3  1  0  0  0  0
  3  4  4  0  0  0  0
  4  5  4  0  0  0  0
  5  6  4  0  0  0  0
  6  7  1  0  0  0  0
  6  8  4  0  0  0  0
  8  9  4  0  0  0  0
  9 10  4  0  0  0  0
 10 11  4  0  0  0  0
  5 11  4  0  0  0  0
 11 12  4  0  0  0  0
 12 13  4  0  0  0  0
  3 13  4  0  0  0  0
 13 14  1  0  0  0  0
 14 15  1  0  0  0  0
 15 16  1  0  0  0  0
 16 17  2  0  0  0  0
 16 18  1  0  0  0  0
 18 19  1  0  0  0  0
 19 20  1  0  0  0  0
 19 21  1  0  0  0  0
 15 22  1  1  0  0  0
 22 23  1  0  0  0  0
 23 24  1  0  0  0  0
 24 25  1  0  0  0  0
 25 26  1  6  0  0  0
 26 27  1  0  0  0  0
 27 28  2  0  0  0  0
 27 29  2  0  0  0  0
 27 30  1  0  0  0  0
 30 31  4  0  0  0  0
 31 32  4  0  0  0  0
 32 33  4  0  0  0  0
 33 34  1  0  0  0  0
 34 35  1  0  0  0  0
 34 36  1  0  0  0  0
 33 37  4  0  0  0  0
 30 37  4  0  0  0  0
 25 38  1  0  0  0  0
 22 38  1  0  0  0  0
 38 39  2  0  0  0  0
M  END
>  <CdId>
358592

>  <Mol Weight>
576.688

>  <Formula>
C25H32N6O6S2

>  <cmpd_chemblid>
CHEMBL3898854

>  <std_type>
Ki

>  <std_value>
800.0

>  <std_unit>
nM

>  <target_id>
CHEMBL2016

>  <target_name>
Coagulation factor IX

>  <organism>
Homo sapiens

>  <target_type>
SINGLE PROTEIN

$$$$

  Mrv0541 08052111042D          

 29 32  0  0  0  0            999 V2000
    2.7845    0.6979    0.0000 C   0  0  0  0  0  0  0  0  0  0  0  0
    2.0701    1.1104    0.0000 C   0  0  0  0  0  0  0  0  0  0  0  0
    1.3556    0.6979    0.0000 C   0  0  0  0  0  0  0  0  0  0  0  0
    0.6411    1.1104    0.0000 C   0  0  0  0  0  0  0  0  0  0  0  0
   -0.1435    0.8555    0.0000 N   0  0  0  0  0  0  0  0  0  0  0  0
   -0.6284    1.5229    0.0000 C   0  0  0  0  0  0  0  0  0  0  0  0
   -1.4534    1.5229    0.0000 C   0  0  0  0  0  0  0  0  0  0  0  0
   -1.8659    2.2374    0.0000 C   0  0  0  0  0  0  0  0  0  0  0  0
   -1.8659    0.8085    0.0000 C   0  0  0  0  0  0  0  0  0  0  0  0
   -2.6909    0.8085    0.0000 N   0  0  0  0  0  0  0  0  0  0  0  0
   -3.1034    0.0940    0.0000 C   0  0  0  0  0  0  0  0  0  0  0  0
   -2.6909   -0.6205    0.0000 O   0  0  0  0  0  0  0  0  0  0  0  0
   -3.9284    0.0940    0.0000 C   0  0  0  0  0  0  0  0  0  0  0  0
   -4.3409   -0.6205    0.0000 C   0  0  0  0  0  0  0  0  0  0  0  0
   -5.1659   -0.6205    0.0000 C   0  0  0  0  0  0  0  0  0  0  0  0
   -5.5784    0.0940    0.0000 C   0  0  0  0  0  0  0  0  0  0  0  0
   -6.4034    0.0940    0.0000 N   0  0  0  0  0  0  0  0  0  0  0  0
   -6.8884   -0.5734    0.0000 C   0  0  0  0  0  0  0  0  0  0  0  0
   -7.6730   -0.3185    0.0000 N   0  0  0  0  0  0  0  0  0  0  0  0
   -7.6730    0.5065    0.0000 N   0  0  0  0  0  0  0  0  0  0  0  0
   -6.8884    0.7614    0.0000 C   0  0  0  0  0  0  0  0  0  0  0  0
   -5.1659    0.8085    0.0000 C   0  0  0  0  0  0  0  0  0  0  0  0
   -4.3409    0.8085    0.0000 C   0  0  0  0  0  0  0  0  0  0  0  0
   -3.9284    1.5229    0.0000 Cl  0  0  0  0  0  0  0  0  0  0  0  0
   -0.1435    2.1904    0.0000 N   0  0  0  0  0  0  0  0  0  0  0  0
    0.6411    1.9354    0.0000 C   0  0  0  0  0  0  0  0  0  0  0  0
    1.3556    2.3479    0.0000 C   0  0  0  0  0  0  0  0  0  0  0  0
    2.0701    1.9354    0.0000 C   0  0  0  0  0  0  0  0  0  0  0  0
    2.7845    2.3479    0.0000 C   0  0  0  0  0  0  0  0  0  0  0  0
  1  2  1  0  0  0  0
  2  3  4  0  0  0  0
  3  4  4  0  0  0  0
  4  5  4  0  0  0  0
  5  6  4  0  0  0  0
  6  7  1  0  0  0  0
  7  8  1  0  0  0  0
  7  9  1  0  0  0  0
  9 10  1  0  0  0  0
 10 11  1  0  0  0  0
 11 12  2  0  0  0  0
 11 13  1  0  0  0  0
 13 14  4  0  0  0  0
 14 15  4  0  0  0  0
 15 16  4  0  0  0  0
 16 17  1  0  0  0  0
 17 18  4  0  0  0  0
 18 19  4  0  0  0  0
 19 20  4  0  0  0  0
 20 21  4  0  0  0  0
 17 21  4  0  0  0  0
 16 22  4  0  0  0  0
 22 23  4  0  0  0  0
 13 23  4  0  0  0  0
 23 24  1  0  0  0  0
  6 25  4  0  0  0  0
 25 26  4  0  0  0  0
  4 26  4  0  0  0  0
 26 27  4  0  0  0  0
 27 28  4  0  0  0  0
  2 28  4  0  0  0  0
 28 29  1  0  0  0  0
M  STY  1   1 DAT
M  SAL   1  1  25
M  SDT   1 MRV_IMPLICIT_H                                        
M  SDD   1     0.0000    0.0000    DR    ALL  0       0  
M  SED   1 IMPL_H1
M  END
>  <CdId>
358594

>  <Mol Weight>
408.884

>  <Formula>
C21H21ClN6O

>  <cmpd_chemblid>
CHEMBL3423057

>  <std_type>
Ki

>  <std_value>
340.0

>  <std_unit>
nM

>  <target_id>
CHEMBL2016

>  <target_name>
Coagulation factor IX

>  <organism>
Homo sapiens

>  <target_type>
SINGLE PROTEIN

$$$$

  Mrv0541 08052111042D          

 39 44  0  0  0  0            999 V2000
   10.2293    2.9548    0.0000 N   0  0  0  0  0  0  0  0  0  0  0  0
    9.5148    3.3673    0.0000 C   0  0  0  0  0  0  0  0  0  0  0  0
    9.5148    4.1923    0.0000 N   0  0  0  0  0  0  0  0  0  0  0  0
    8.8003    2.9548    0.0000 C   0  0  0  0  0  0  0  0  0  0  0  0
    8.8003    2.1298    0.0000 C   0  0  0  0  0  0  0  0  0  0  0  0
    8.0859    1.7173    0.0000 C   0  0  0  0  0  0  0  0  0  0  0  0
    7.3714    2.1298    0.0000 C   0  0  0  0  0  0  0  0  0  0  0  0
    6.5868    1.8748    0.0000 N   0  0  0  0  0  0  0  0  0  0  0  0
    6.1019    2.5423    0.0000 C   0  0  0  0  0  0  0  0  0  0  0  0
    6.5868    3.2097    0.0000 C   0  0  0  0  0  0  0  0  0  0  0  0
    6.3318    3.9943    0.0000 C   0  0  0  0  0  0  0  0  0  0  0  0
    5.5249    4.1659    0.0000 C   0  0  0  0  0  0  0  0  0  0  0  0
    5.2699    4.9505    0.0000 C   0  0  0  0  0  0  0  0  0  0  0  0
    4.4630    5.1220    0.0000 C   0  0  0  0  0  0  0  0  0  0  0  0
    4.2080    5.9066    0.0000 C   0  0  0  0  0  0  0  0  0  0  0  0
    4.7600    6.5197    0.0000 C   0  0  0  0  0  0  0  0  0  0  0  0
    5.5670    6.3482    0.0000 C   0  0  0  0  0  0  0  0  0  0  0  0
    5.8220    5.5636    0.0000 C   0  0  0  0  0  0  0  0  0  0  0  0
    6.8839    4.6074    0.0000 C   0  0  0  0  0  0  0  0  0  0  0  0
    7.6908    4.4359    0.0000 O   0  0  0  0  0  0  0  0  0  0  0  0
    6.6289    5.3921    0.0000 N   0  0  0  0  0  0  0  0  0  0  0  0
    7.1810    6.0052    0.0000 C   0  0  0  0  0  0  0  0  0  0  0  0
    6.9260    6.7898    0.0000 C   0  0  0  0  0  0  0  0  0  0  0  0
    7.4781    7.4029    0.0000 C   0  0  0  0  0  0  0  0  0  0  0  0
    8.2850    7.2313    0.0000 C   0  0  0  0  0  0  0  0  0  0  0  0
    8.8371    7.8444    0.0000 N   0  0  0  0  0  0  0  0  0  0  0  0
    8.6655    8.6514    0.0000 C   0  0  0  0  0  0  0  0  0  0  0  0
    9.3800    9.0639    0.0000 N   0  0  0  0  0  0  0  0  0  0  0  0
    9.9931    8.5119    0.0000 C   0  0  0  0  0  0  0  0  0  0  0  0
   10.8136    8.5981    0.0000 C   0  0  0  0  0  0  0  0  0  0  0  0
   11.2985    7.9307    0.0000 C   0  0  0  0  0  0  0  0  0  0  0  0
   10.9629    7.1770    0.0000 C   0  0  0  0  0  0  0  0  0  0  0  0
   10.1425    7.0908    0.0000 C   0  0  0  0  0  0  0  0  0  0  0  0
    9.6575    7.7582    0.0000 C   0  0  0  0  0  0  0  0  0  0  0  0
    8.5400    6.4467    0.0000 C   0  0  0  0  0  0  0  0  0  0  0  0
    7.9879    5.8336    0.0000 C   0  0  0  0  0  0  0  0  0  0  0  0
    8.2429    5.0490    0.0000 F   0  0  0  0  0  0  0  0  0  0  0  0
    7.3714    2.9548    0.0000 C   0  0  0  0  0  0  0  0  0  0  0  0
    8.0859    3.3673    0.0000 C   0  0  0  0  0  0  0  0  0  0  0  0
  1  2  2  0  0  0  0
  2  3  1  0  0  0  0
  2  4  1  0  0  0  0
  4  5  4  0  0  0  0
  5  6  4  0  0  0  0
  6  7  4  0  0  0  0
  7  8  4  0  0  0  0
  8  9  4  0  0  0  0
  9 10  4  0  0  0  0
 10 11  1  0  0  0  0
 11 12  1  0  0  0  0
 12 13  1  0  0  0  0
 13 14  4  0  0  0  0
 14 15  4  0  0  0  0
 15 16  4  0  0  0  0
 16 17  4  0  0  0  0
 17 18  4  0  0  0  0
 13 18  4  0  0  0  0
 11 19  1  0  0  0  0
 19 20  2  0  0  0  0
 19 21  1  0  0  0  0
 21 22  1  0  0  0  0
 22 23  4  0  0  0  0
 23 24  4  0  0  0  0
 24 25  4  0  0  0  0
 25 26  1  0  0  0  0
 26 27  4  0  0  0  0
 27 28  4  0  0  0  0
 28 29  4  0  0  0  0
 29 30  4  0  0  0  0
 30 31  4  0  0  0  0
 31 32  4  0  0  0  0
 32 33  4  0  0  0  0
 33 34  4  0  0  0  0
 29 34  4  0  0  0  0
 26 34  4  0  0  0  0
 25 35  4  0  0  0  0
 35 36  4  0  0  0  0
 22 36  4  0  0  0  0
 36 37  1  0  0  0  0
 10 38  4  0  0  0  0
  7 38  4  0  0  0  0
 38 39  4  0  0  0  0
  4 39  4  0  0  0  0
M  STY  1   1 DAT
M  SAL   1  1   8
M  SDT   1 MRV_IMPLICIT_H                                        
M  SDD   1     0.0000    0.0000    DR    ALL  0       0  
M  SED   1 IMPL_H1
M  END
>  <CdId>
358595

>  <Mol Weight>
516.5682

>  <Formula>
C31H25FN6O

>  <cmpd_chemblid>
CHEMBL263495

>  <std_type>
Ki

>  <std_value>
63.0

>  <std_unit>
nM

>  <target_id>
CHEMBL2016

>  <target_name>
Coagulation factor IX

>  <organism>
Homo sapiens

>  <target_type>
SINGLE PROTEIN

$$$$

  Mrv0541 08052111042D          

 45 49  0  0  1  0            999 V2000
    8.6329   -2.2539    0.0000 C   0  0  0  0  0  0  0  0  0  0  0  0
    8.2204   -1.5395    0.0000 O   0  0  0  0  0  0  0  0  0  0  0  0
    7.3954   -1.5395    0.0000 C   0  0  0  0  0  0  0  0  0  0  0  0
    6.9829   -2.2539    0.0000 O   0  0  0  0  0  0  0  0  0  0  0  0
    6.9829   -0.8250    0.0000 N   0  0  0  0  0  0  0  0  0  0  0  0
    6.1579   -0.8250    0.0000 C   0  0  0  0  0  0  0  0  0  0  0  0
    5.7454   -0.1105    0.0000 C   0  0  0  0  0  0  0  0  0  0  0  0
    4.9204   -0.1105    0.0000 C   0  0  0  0  0  0  0  0  0  0  0  0
    4.5079   -0.8250    0.0000 C   0  0  0  0  0  0  0  0  0  0  0  0
    4.9204   -1.5395    0.0000 C   0  0  0  0  0  0  0  0  0  0  0  0
    5.7454   -1.5395    0.0000 C   0  0  0  0  0  0  0  0  0  0  0  0
    4.5079   -2.2539    0.0000 N   0  0  0  0  0  0  0  0  0  0  0  0
    4.9204   -2.9684    0.0000 C   0  0  0  0  0  0  0  0  0  0  0  0
    5.7454   -2.9684    0.0000 O   0  0  0  0  0  0  0  0  0  0  0  0
    4.5079   -3.6829    0.0000 C   0  0  2  0  0  0  0  0  0  0  0  0
    4.9204   -4.3974    0.0000 C   0  0  0  0  0  0  0  0  0  0  0  0
    3.6829   -3.6829    0.0000 C   0  0  0  0  0  0  0  0  0  0  0  0
    3.2704   -2.9684    0.0000 C   0  0  0  0  0  0  0  0  0  0  0  0
    2.4454   -2.9684    0.0000 C   0  0  0  0  0  0  0  0  0  0  0  0
    2.0329   -2.2539    0.0000 C   0  0  2  0  0  0  0  0  0  0  0  0
    1.2079   -2.2539    0.0000 N   0  0  0  0  0  0  0  0  0  0  0  0
    0.7954   -2.9684    0.0000 C   0  0  0  0  0  0  0  0  0  0  0  0
   -0.0296   -2.9684    0.0000 C   0  0  0  0  0  0  0  0  0  0  0  0
   -0.4421   -2.2539    0.0000 C   0  0  0  0  0  0  0  0  0  0  0  0
   -1.2671   -2.2539    0.0000 C   0  0  0  0  0  0  0  0  0  0  0  0
   -1.6796   -2.9684    0.0000 C   0  0  0  0  0  0  0  0  0  0  0  0
   -1.2671   -3.6829    0.0000 C   0  0  0  0  0  0  0  0  0  0  0  0
   -0.8546   -4.3974    0.0000 N   0  0  0  0  0  0  0  0  0  0  0  0
   -2.5046   -2.9684    0.0000 C   0  0  0  0  0  0  0  0  0  0  0  0
   -2.9171   -2.2539    0.0000 C   0  0  0  0  0  0  0  0  0  0  0  0
   -2.5046   -1.5395    0.0000 C   0  0  0  0  0  0  0  0  0  0  0  0
   -2.9171   -0.8250    0.0000 Cl  0  0  0  0  0  0  0  0  0  0  0  0
   -1.6796   -1.5395    0.0000 C   0  0  0  0  0  0  0  0  0  0  0  0
   -1.2671   -0.8250    0.0000 F   0  0  0  0  0  0  0  0  0  0  0  0
   -0.0296   -1.5395    0.0000 C   0  0  0  0  0  0  0  0  0  0  0  0
    0.7954   -1.5395    0.0000 C   0  0  0  0  0  0  0  0  0  0  0  0
    1.2079   -0.8250    0.0000 O   0  0  0  0  0  0  0  0  0  0  0  0
    2.4454   -1.5395    0.0000 C   0  0  0  0  0  0  0  0  0  0  0  0
    3.2704   -1.5395    0.0000 C   0  0  0  0  0  0  0  0  0  0  0  0
    3.6829   -0.8250    0.0000 C   0  0  0  0  0  0  0  0  0  0  0  0
    3.2704   -0.1105    0.0000 C   0  0  0  0  0  0  0  0  0  0  0  0
    2.4454   -0.1105    0.0000 C   0  0  0  0  0  0  0  0  0  0  0  0
    2.0329    0.6039    0.0000 O   0  0  0  0  0  0  0  0  0  0  0  0
    1.2079    0.6039    0.0000 C   0  0  0  0  0  0  0  0  0  0  0  0
    2.0329   -0.8250    0.0000 N   0  0  0  0  0  0  0  0  0  0  0  0
  1  2  1  0  0  0  0
  2  3  1  0  0  0  0
  3  4  2  0  0  0  0
  3  5  1  0  0  0  0
  5  6  1  0  0  0  0
  6  7  4  0  0  0  0
  7  8  4  0  0  0  0
  8  9  4  0  0  0  0
  9 10  4  0  0  0  0
 10 11  4  0  0  0  0
  6 11  4  0  0  0  0
 10 12  1  0  0  0  0
 12 13  1  0  0  0  0
 13 14  2  0  0  0  0
 13 15  1  0  0  0  0
 15 16  1  6  0  0  0
 15 17  1  0  0  0  0
 17 18  1  0  0  0  0
 18 19  1  0  0  0  0
 19 20  1  0  0  0  0
 20 21  1  6  0  0  0
 21 22  1  0  0  0  0
 22 23  1  0  0  0  0
 23 24  1  0  0  0  0
 24 25  1  0  0  0  0
 25 26  4  0  0  0  0
 26 27  1  0  0  0  0
 27 28  3  0  0  0  0
 26 29  4  0  0  0  0
 29 30  4  0  0  0  0
 30 31  4  0  0  0  0
 31 32  1  0  0  0  0
 31 33  4  0  0  0  0
 25 33  4  0  0  0  0
 33 34  1  0  0  0  0
 24 35  2  0  0  0  0
 35 36  1  0  0  0  0
 21 36  1  0  0  0  0
 36 37  2  0  0  0  0
 20 38  1  0  0  0  0
 38 39  4  0  0  0  0
 39 40  4  0  0  0  0
  9 40  1  0  0  0  0
 40 41  4  0  0  0  0
 41 42  4  0  0  0  0
 42 43  1  0  0  0  0
 43 44  1  0  0  0  0
 42 45  4  0  0  0  0
 38 45  4  0  0  0  0
M  END
>  <CdId>
358599

>  <Mol Weight>
632.081

>  <Formula>
C33H31ClFN5O5

>  <cmpd_chemblid>
CHEMBL4111429

>  <std_type>
Ki

>  <std_value>
0.09

>  <std_unit>
nM

>  <target_id>
CHEMBL2016

>  <target_name>
Coagulation factor IX

>  <organism>
Homo sapiens

>  <target_type>
SINGLE PROTEIN

$$$$

  Mrv0541 08052111042D          

 37 41  0  0  1  0            999 V2000
   -1.2671   -0.8250    0.0000 C   0  0  0  0  0  0  0  0  0  0  0  0
   -1.6796   -0.1105    0.0000 C   0  0  0  0  0  0  0  0  0  0  0  0
   -2.5046   -0.1105    0.0000 C   0  0  0  0  0  0  0  0  0  0  0  0
   -2.9171    0.6039    0.0000 C   0  0  0  0  0  0  0  0  0  0  0  0
   -2.5046    1.3184    0.0000 C   0  0  0  0  0  0  0  0  0  0  0  0
   -2.9171    2.0329    0.0000 Cl  0  0  0  0  0  0  0  0  0  0  0  0
   -1.6796    1.3184    0.0000 C   0  0  0  0  0  0  0  0  0  0  0  0
   -1.2671    2.0329    0.0000 F   0  0  0  0  0  0  0  0  0  0  0  0
   -1.2671    0.6039    0.0000 C   0  0  0  0  0  0  0  0  0  0  0  0
   -0.4421    0.6039    0.0000 C   0  0  0  0  0  0  0  0  0  0  0  0
   -0.0296    1.3184    0.0000 C   0  0  0  0  0  0  0  0  0  0  0  0
    0.7954    1.3184    0.0000 C   0  0  0  0  0  0  0  0  0  0  0  0
    1.2079    2.0329    0.0000 O   0  0  0  0  0  0  0  0  0  0  0  0
    1.2079    0.6039    0.0000 N   0  0  0  0  0  0  0  0  0  0  0  0
    2.0329    0.6039    0.0000 C   0  0  1  0  0  0  0  0  0  0  0  0
    2.4454    1.3184    0.0000 C   0  0  0  0  0  0  0  0  0  0  0  0
    3.2704    1.3184    0.0000 C   0  0  0  0  0  0  0  0  0  0  0  0
    3.6829    2.0329    0.0000 C   0  0  0  0  0  0  0  0  0  0  0  0
    4.5079    2.0329    0.0000 C   0  0  1  0  0  0  0  0  0  0  0  0
    4.9204    2.7474    0.0000 C   0  0  0  0  0  0  0  0  0  0  0  0
    4.9204    1.3184    0.0000 C   0  0  0  0  0  0  0  0  0  0  0  0
    5.7454    1.3184    0.0000 O   0  0  0  0  0  0  0  0  0  0  0  0
    4.5079    0.6039    0.0000 N   0  0  0  0  0  0  0  0  0  0  0  0
    4.9204   -0.1105    0.0000 C   0  0  0  0  0  0  0  0  0  0  0  0
    5.7454   -0.1105    0.0000 C   0  0  0  0  0  0  0  0  0  0  0  0
    6.1579   -0.8250    0.0000 C   0  0  0  0  0  0  0  0  0  0  0  0
    5.7454   -1.5395    0.0000 C   0  0  0  0  0  0  0  0  0  0  0  0
    4.9204   -1.5395    0.0000 C   0  0  0  0  0  0  0  0  0  0  0  0
    4.5079   -0.8250    0.0000 C   0  0  0  0  0  0  0  0  0  0  0  0
    3.6829   -0.8250    0.0000 C   0  0  0  0  0  0  0  0  0  0  0  0
    3.2704   -1.5395    0.0000 C   0  0  0  0  0  0  0  0  0  0  0  0
    2.4454   -1.5395    0.0000 C   0  0  0  0  0  0  0  0  0  0  0  0
    2.0329   -0.8250    0.0000 N   0  0  0  0  0  0  0  0  0  0  0  0
    2.4454   -0.1105    0.0000 C   0  0  0  0  0  0  0  0  0  0  0  0
    3.2704   -0.1105    0.0000 C   0  0  0  0  0  0  0  0  0  0  0  0
    0.7954   -0.1105    0.0000 C   0  0  0  0  0  0  0  0  0  0  0  0
   -0.0296   -0.1105    0.0000 C   0  0  0  0  0  0  0  0  0  0  0  0
  1  2  1  0  0  0  0
  2  3  4  0  0  0  0
  3  4  4  0  0  0  0
  4  5  4  0  0  0  0
  5  6  1  0  0  0  0
  5  7  4  0  0  0  0
  7  8  1  0  0  0  0
  7  9  4  0  0  0  0
  2  9  4  0  0  0  0
  9 10  1  0  0  0  0
 10 11  2  0  0  0  0
 11 12  1  0  0  0  0
 12 13  2  0  0  0  0
 12 14  1  0  0  0  0
 15 14  1  1  0  0  0
 15 16  1  0  0  0  0
 16 17  1  0  0  0  0
 17 18  1  0  0  0  0
 18 19  1  0  0  0  0
 19 20  1  1  0  0  0
 19 21  1  0  0  0  0
 21 22  2  0  0  0  0
 21 23  1  0  0  0  0
 23 24  1  0  0  0  0
 24 25  4  0  0  0  0
 25 26  4  0  0  0  0
 26 27  4  0  0  0  0
 27 28  4  0  0  0  0
 28 29  4  0  0  0  0
 24 29  4  0  0  0  0
 29 30  1  0  0  0  0
 30 31  4  0  0  0  0
 31 32  4  0  0  0  0
 32 33  4  0  0  0  0
 33 34  4  0  0  0  0
 15 34  1  0  0  0  0
 34 35  4  0  0  0  0
 30 35  4  0  0  0  0
 14 36  1  0  0  0  0
 36 37  1  0  0  0  0
 10 37  1  0  0  0  0
M  END
>  <CdId>
358600

>  <Mol Weight>
518.022

>  <Formula>
C30H29ClFN3O2

>  <cmpd_chemblid>
CHEMBL4112267

>  <std_type>
Ki

>  <std_value>
17.18

>  <std_unit>
nM

>  <target_id>
CHEMBL2016

>  <target_name>
Coagulation factor IX

>  <organism>
Homo sapiens

>  <target_type>
SINGLE PROTEIN

$$$$

  Mrv0541 08052111042D          

 40 44  0  0  1  0            999 V2000
    8.6329   -2.2539    0.0000 C   0  0  0  0  0  0  0  0  0  0  0  0
    8.2204   -1.5395    0.0000 O   0  0  0  0  0  0  0  0  0  0  0  0
    7.3954   -1.5395    0.0000 C   0  0  0  0  0  0  0  0  0  0  0  0
    6.9829   -2.2539    0.0000 O   0  0  0  0  0  0  0  0  0  0  0  0
    6.9829   -0.8250    0.0000 N   0  0  0  0  0  0  0  0  0  0  0  0
    6.1579   -0.8250    0.0000 C   0  0  0  0  0  0  0  0  0  0  0  0
    5.7454   -0.1105    0.0000 C   0  0  0  0  0  0  0  0  0  0  0  0
    4.9204   -0.1105    0.0000 C   0  0  0  0  0  0  0  0  0  0  0  0
    4.5079   -0.8250    0.0000 C   0  0  0  0  0  0  0  0  0  0  0  0
    4.9204   -1.5395    0.0000 C   0  0  0  0  0  0  0  0  0  0  0  0
    5.7454   -1.5395    0.0000 C   0  0  0  0  0  0  0  0  0  0  0  0
    4.5079   -2.2539    0.0000 N   0  0  0  0  0  0  0  0  0  0  0  0
    4.9204   -2.9684    0.0000 C   0  0  0  0  0  0  0  0  0  0  0  0
    5.7454   -2.9684    0.0000 O   0  0  0  0  0  0  0  0  0  0  0  0
    4.5079   -3.6829    0.0000 C   0  0  2  0  0  0  0  0  0  0  0  0
    4.9204   -4.3974    0.0000 C   0  0  0  0  0  0  0  0  0  0  0  0
    3.6829   -3.6829    0.0000 C   0  0  0  0  0  0  0  0  0  0  0  0
    3.2704   -2.9684    0.0000 C   0  0  0  0  0  0  0  0  0  0  0  0
    2.4454   -2.9684    0.0000 C   0  0  0  0  0  0  0  0  0  0  0  0
    2.0329   -2.2539    0.0000 C   0  0  2  0  0  0  0  0  0  0  0  0
    1.2079   -2.2539    0.0000 N   0  0  0  0  0  0  0  0  0  0  0  0
    0.7954   -2.9684    0.0000 C   0  0  0  0  0  0  0  0  0  0  0  0
   -0.0296   -2.9684    0.0000 C   0  0  0  0  0  0  0  0  0  0  0  0
   -0.4421   -2.2539    0.0000 C   0  0  0  0  0  0  0  0  0  0  0  0
   -1.2671   -2.2539    0.0000 C   0  0  0  0  0  0  0  0  0  0  0  0
   -1.6796   -2.9684    0.0000 C   0  0  0  0  0  0  0  0  0  0  0  0
   -2.5046   -2.9684    0.0000 C   0  0  0  0  0  0  0  0  0  0  0  0
   -2.9171   -2.2539    0.0000 C   0  0  0  0  0  0  0  0  0  0  0  0
   -2.5046   -1.5395    0.0000 C   0  0  0  0  0  0  0  0  0  0  0  0
   -1.6796   -1.5395    0.0000 N   0  0  0  0  0  0  0  0  0  0  0  0
   -1.2671   -0.8250    0.0000 C   0  0  0  0  0  0  0  0  0  0  0  0
   -0.0296   -1.5395    0.0000 C   0  0  0  0  0  0  0  0  0  0  0  0
    0.7954   -1.5395    0.0000 C   0  0  0  0  0  0  0  0  0  0  0  0
    1.2079   -0.8250    0.0000 O   0  0  0  0  0  0  0  0  0  0  0  0
    2.4454   -1.5395    0.0000 C   0  0  0  0  0  0  0  0  0  0  0  0
    3.2704   -1.5395    0.0000 C   0  0  0  0  0  0  0  0  0  0  0  0
    3.6829   -0.8250    0.0000 C   0  0  0  0  0  0  0  0  0  0  0  0
    3.2704   -0.1105    0.0000 C   0  0  0  0  0  0  0  0  0  0  0  0
    2.4454   -0.1105    0.0000 C   0  0  0  0  0  0  0  0  0  0  0  0
    2.0329   -0.8250    0.0000 N   0  0  0  0  0  0  0  0  0  0  0  0
  1  2  1  0  0  0  0
  2  3  1  0  0  0  0
  3  4  2  0  0  0  0
  3  5  1  0  0  0  0
  5  6  1  0  0  0  0
  6  7  4  0  0  0  0
  7  8  4  0  0  0  0
  8  9  4  0  0  0  0
  9 10  4  0  0  0  0
 10 11  4  0  0  0  0
  6 11  4  0  0  0  0
 10 12  1  0  0  0  0
 12 13  1  0  0  0  0
 13 14  2  0  0  0  0
 13 15  1  0  0  0  0
 15 16  1  6  0  0  0
 15 17  1  0  0  0  0
 17 18  1  0  0  0  0
 18 19  1  0  0  0  0
 19 20  1  0  0  0  0
 20 21  1  6  0  0  0
 21 22  1  0  0  0  0
 22 23  1  0  0  0  0
 23 24  1  0  0  0  0
 24 25  1  0  0  0  0
 25 26  1  0  0  0  0
 26 27  1  0  0  0  0
 27 28  1  0  0  0  0
 28 29  1  0  0  0  0
 29 30  1  0  0  0  0
 25 30  1  0  0  0  0
 30 31  1  0  0  0  0
 24 32  2  0  0  0  0
 32 33  1  0  0  0  0
 21 33  1  0  0  0  0
 33 34  2  0  0  0  0
 20 35  1  0  0  0  0
 35 36  4  0  0  0  0
 36 37  4  0  0  0  0
  9 37  1  0  0  0  0
 37 38  4  0  0  0  0
 38 39  4  0  0  0  0
 39 40  4  0  0  0  0
 35 40  4  0  0  0  0
M  END
>  <CdId>
358603

>  <Mol Weight>
545.6725

>  <Formula>
C31H39N5O4

>  <cmpd_chemblid>
CHEMBL4107893

>  <std_type>
Ki

>  <std_value>
404.3

>  <std_unit>
nM

>  <target_id>
CHEMBL2016

>  <target_name>
Coagulation factor IX

>  <organism>
Homo sapiens

>  <target_type>
SINGLE PROTEIN

$$$$

  Mrv0541 08052111042D          

 41 46  0  0  1  0            999 V2000
    7.0954    4.2921    0.0000 C   0  0  0  0  0  0  0  0  0  0  0  0
    7.3757    3.5162    0.0000 C   0  0  2  0  0  0  0  0  0  0  0  0
    8.1878    3.3710    0.0000 C   0  0  0  0  0  0  0  0  0  0  0  0
    8.4681    2.5951    0.0000 C   0  0  0  0  0  0  0  0  0  0  0  0
    9.2802    2.4498    0.0000 C   0  0  0  0  0  0  0  0  0  0  0  0
    9.5605    1.6739    0.0000 C   0  0  2  0  0  0  0  0  0  0  0  0
   10.3727    1.5287    0.0000 N   0  0  0  0  0  0  0  0  0  0  0  0
   10.9045    2.1594    0.0000 C   0  0  0  0  0  0  0  0  0  0  0  0
   11.7166    2.0142    0.0000 C   0  0  0  0  0  0  0  0  0  0  0  0
   11.9969    1.2383    0.0000 C   0  0  0  0  0  0  0  0  0  0  0  0
   12.8090    1.0931    0.0000 C   0  0  0  0  0  0  0  0  0  0  0  0
   13.3408    1.7238    0.0000 C   0  0  0  0  0  0  0  0  0  0  0  0
   13.0605    2.4997    0.0000 F   0  0  0  0  0  0  0  0  0  0  0  0
   14.1529    1.5785    0.0000 C   0  0  0  0  0  0  0  0  0  0  0  0
   14.4332    0.8026    0.0000 C   0  0  0  0  0  0  0  0  0  0  0  0
   13.9014    0.1719    0.0000 C   0  0  0  0  0  0  0  0  0  0  0  0
   14.1817   -0.6040    0.0000 Cl  0  0  0  0  0  0  0  0  0  0  0  0
   13.0893    0.3171    0.0000 C   0  0  0  0  0  0  0  0  0  0  0  0
   12.5575   -0.3136    0.0000 F   0  0  0  0  0  0  0  0  0  0  0  0
   11.4651    0.6076    0.0000 C   0  0  0  0  0  0  0  0  0  0  0  0
   10.6530    0.7528    0.0000 C   0  0  0  0  0  0  0  0  0  0  0  0
   10.1211    0.1221    0.0000 O   0  0  0  0  0  0  0  0  0  0  0  0
    9.0287    1.0432    0.0000 C   0  0  0  0  0  0  0  0  0  0  0  0
    8.2166    1.1884    0.0000 C   0  0  0  0  0  0  0  0  0  0  0  0
    7.6848    0.5577    0.0000 C   0  0  0  0  0  0  0  0  0  0  0  0
    7.9651   -0.2182    0.0000 C   0  0  0  0  0  0  0  0  0  0  0  0
    8.7772   -0.3634    0.0000 C   0  0  0  0  0  0  0  0  0  0  0  0
    9.3090    0.2673    0.0000 N   0  0  0  0  0  0  0  0  0  0  0  0
    6.8727    0.7029    0.0000 C   0  0  0  0  0  0  0  0  0  0  0  0
    6.3408    0.0722    0.0000 C   0  0  0  0  0  0  0  0  0  0  0  0
    5.5287    0.2174    0.0000 C   0  0  0  0  0  0  0  0  0  0  0  0
    5.2484    0.9934    0.0000 C   0  0  0  0  0  0  0  0  0  0  0  0
    5.7802    1.6241    0.0000 C   0  0  0  0  0  0  0  0  0  0  0  0
    6.5924    1.4789    0.0000 C   0  0  0  0  0  0  0  0  0  0  0  0
    7.1242    2.1096    0.0000 N   0  0  0  0  0  0  0  0  0  0  0  0
    6.8439    2.8855    0.0000 C   0  0  0  0  0  0  0  0  0  0  0  0
    6.0318    3.0307    0.0000 O   0  0  0  0  0  0  0  0  0  0  0  0
    4.4239    0.9666    0.0000 N   0  0  0  0  0  0  0  0  0  0  0  0
    4.1945    0.1741    0.0000 C   0  0  0  0  0  0  0  0  0  0  0  0
    3.4186   -0.1062    0.0000 O   0  0  0  0  0  0  0  0  0  0  0  0
    4.8774   -0.2889    0.0000 C   0  0  0  0  0  0  0  0  0  0  0  0
  2  1  1  6  0  0  0
  2  3  1  0  0  0  0
  3  4  1  0  0  0  0
  4  5  1  0  0  0  0
  5  6  1  0  0  0  0
  6  7  1  6  0  0  0
  7  8  1  0  0  0  0
  8  9  1  0  0  0  0
  9 10  1  0  0  0  0
 10 11  1  0  0  0  0
 11 12  4  0  0  0  0
 12 13  1  0  0  0  0
 12 14  4  0  0  0  0
 14 15  4  0  0  0  0
 15 16  4  0  0  0  0
 16 17  1  0  0  0  0
 16 18  4  0  0  0  0
 11 18  4  0  0  0  0
 18 19  1  0  0  0  0
 10 20  2  0  0  0  0
 20 21  1  0  0  0  0
  7 21  1  0  0  0  0
 21 22  2  0  0  0  0
  6 23  1  0  0  0  0
 23 24  4  0  0  0  0
 24 25  4  0  0  0  0
 25 26  4  0  0  0  0
 26 27  4  0  0  0  0
 27 28  4  0  0  0  0
 23 28  4  0  0  0  0
 25 29  1  0  0  0  0
 29 30  4  0  0  0  0
 30 31  4  0  0  0  0
 31 32  4  0  0  0  0
 32 33  4  0  0  0  0
 33 34  4  0  0  0  0
 29 34  4  0  0  0  0
 34 35  1  0  0  0  0
 35 36  1  0  0  0  0
  2 36  1  0  0  0  0
 36 37  2  0  0  0  0
 32 38  1  0  0  0  0
 38 39  1  0  0  0  0
 39 40  2  0  0  0  0
 39 41  1  0  0  0  0
 31 41  1  0  0  0  0
M  END
>  <CdId>
358604

>  <Mol Weight>
577.021

>  <Formula>
C31H27ClF2N4O3

>  <cmpd_chemblid>
CHEMBL4113209

>  <std_type>
Ki

>  <std_value>
2.68

>  <std_unit>
nM

>  <target_id>
CHEMBL2016

>  <target_name>
Coagulation factor IX

>  <organism>
Homo sapiens

>  <target_type>
SINGLE PROTEIN

$$$$

  Mrv0541 08052111042D          

 46 51  0  0  1  0            999 V2000
    3.9849    3.9849    0.0000 C   0  0  0  0  0  0  0  0  0  0  0  0
    4.3974    3.2704    0.0000 C   0  0  2  0  0  0  0  0  0  0  0  0
    5.2224    3.2704    0.0000 C   0  0  0  0  0  0  0  0  0  0  0  0
    5.6349    2.5559    0.0000 C   0  0  0  0  0  0  0  0  0  0  0  0
    6.4599    2.5559    0.0000 C   0  0  0  0  0  0  0  0  0  0  0  0
    6.8724    1.8414    0.0000 C   0  0  2  0  0  0  0  0  0  0  0  0
    7.6974    1.8414    0.0000 N   0  0  0  0  0  0  0  0  0  0  0  0
    8.1099    2.5559    0.0000 C   0  0  0  0  0  0  0  0  0  0  0  0
    8.9349    2.5559    0.0000 C   0  0  0  0  0  0  0  0  0  0  0  0
    9.3474    1.8414    0.0000 C   0  0  0  0  0  0  0  0  0  0  0  0
   10.1724    1.8414    0.0000 C   0  0  0  0  0  0  0  0  0  0  0  0
   10.5849    2.5559    0.0000 C   0  0  0  0  0  0  0  0  0  0  0  0
   10.1724    3.2704    0.0000 F   0  0  0  0  0  0  0  0  0  0  0  0
   11.4099    2.5559    0.0000 C   0  0  0  0  0  0  0  0  0  0  0  0
   11.8224    1.8414    0.0000 C   0  0  0  0  0  0  0  0  0  0  0  0
   11.4099    1.1270    0.0000 C   0  0  0  0  0  0  0  0  0  0  0  0
   11.8224    0.4125    0.0000 Cl  0  0  0  0  0  0  0  0  0  0  0  0
   10.5849    1.1270    0.0000 C   0  0  0  0  0  0  0  0  0  0  0  0
   10.1724    0.4125    0.0000 F   0  0  0  0  0  0  0  0  0  0  0  0
    8.9349    1.1270    0.0000 C   0  0  0  0  0  0  0  0  0  0  0  0
    8.1099    1.1270    0.0000 C   0  0  0  0  0  0  0  0  0  0  0  0
    7.6974    0.4125    0.0000 O   0  0  0  0  0  0  0  0  0  0  0  0
    6.4599    1.1270    0.0000 C   0  0  0  0  0  0  0  0  0  0  0  0
    5.6349    1.1270    0.0000 C   0  0  0  0  0  0  0  0  0  0  0  0
    5.2224    0.4125    0.0000 C   0  0  0  0  0  0  0  0  0  0  0  0
    5.6349   -0.3020    0.0000 C   0  0  0  0  0  0  0  0  0  0  0  0
    6.4599   -0.3020    0.0000 C   0  0  0  0  0  0  0  0  0  0  0  0
    6.8724    0.4125    0.0000 N   0  0  0  0  0  0  0  0  0  0  0  0
    4.3974    0.4125    0.0000 C   0  0  0  0  0  0  0  0  0  0  0  0
    3.9849   -0.3020    0.0000 C   0  0  0  0  0  0  0  0  0  0  0  0
    3.1599   -0.3020    0.0000 C   0  0  0  0  0  0  0  0  0  0  0  0
    2.7474    0.4125    0.0000 C   0  0  0  0  0  0  0  0  0  0  0  0
    1.9224    0.4125    0.0000 N   0  0  0  0  0  0  0  0  0  0  0  0
    1.5099   -0.3020    0.0000 C   0  0  0  0  0  0  0  0  0  0  0  0
    1.8454   -1.0556    0.0000 N   0  0  0  0  0  0  0  0  0  0  0  0
    1.2323   -1.6077    0.0000 N   0  0  0  0  0  0  0  0  0  0  0  0
    0.5178   -1.1952    0.0000 C   0  0  0  0  0  0  0  0  0  0  0  0
   -0.2358   -1.5307    0.0000 C   0  0  0  0  0  0  0  0  0  0  0  0
   -0.3221   -2.3512    0.0000 C   0  0  0  0  0  0  0  0  0  0  0  0
   -0.4083   -3.1717    0.0000 N   0  0  0  0  0  0  0  0  0  0  0  0
    0.6894   -0.3882    0.0000 O   0  0  0  0  0  0  0  0  0  0  0  0
    3.1599    1.1270    0.0000 C   0  0  0  0  0  0  0  0  0  0  0  0
    3.9849    1.1270    0.0000 C   0  0  0  0  0  0  0  0  0  0  0  0
    4.3974    1.8414    0.0000 N   0  0  0  0  0  0  0  0  0  0  0  0
    3.9849    2.5559    0.0000 C   0  0  0  0  0  0  0  0  0  0  0  0
    3.1599    2.5559    0.0000 O   0  0  0  0  0  0  0  0  0  0  0  0
  2  1  1  6  0  0  0
  2  3  1  0  0  0  0
  3  4  1  0  0  0  0
  4  5  1  0  0  0  0
  5  6  1  0  0  0  0
  6  7  1  6  0  0  0
  7  8  1  0  0  0  0
  8  9  1  0  0  0  0
  9 10  1  0  0  0  0
 10 11  1  0  0  0  0
 11 12  4  0  0  0  0
 12 13  1  0  0  0  0
 12 14  4  0  0  0  0
 14 15  4  0  0  0  0
 15 16  4  0  0  0  0
 16 17  1  0  0  0  0
 16 18  4  0  0  0  0
 11 18  4  0  0  0  0
 18 19  1  0  0  0  0
 10 20  2  0  0  0  0
 20 21  1  0  0  0  0
  7 21  1  0  0  0  0
 21 22  2  0  0  0  0
  6 23  1  0  0  0  0
 23 24  4  0  0  0  0
 24 25  4  0  0  0  0
 25 26  4  0  0  0  0
 26 27  4  0  0  0  0
 27 28  4  0  0  0  0
 23 28  4  0  0  0  0
 25 29  1  0  0  0  0
 29 30  4  0  0  0  0
 30 31  4  0  0  0  0
 31 32  4  0  0  0  0
 32 33  1  0  0  0  0
 33 34  1  0  0  0  0
 34 35  4  0  0  0  0
 35 36  4  0  0  0  0
 36 37  4  0  0  0  0
 37 38  1  0  0  0  0
 38 39  1  0  0  0  0
 39 40  3  0  0  0  0
 37 41  4  0  0  0  0
 34 41  4  0  0  0  0
 32 42  4  0  0  0  0
 42 43  4  0  0  0  0
 29 43  4  0  0  0  0
 43 44  1  0  0  0  0
 44 45  1  0  0  0  0
  2 45  1  0  0  0  0
 45 46  2  0  0  0  0
M  END
>  <CdId>
358605

>  <Mol Weight>
644.07

>  <Formula>
C33H28ClF2N7O3

>  <cmpd_chemblid>
CHEMBL4107446

>  <std_type>
Ki

>  <std_value>
1.17

>  <std_unit>
nM

>  <target_id>
CHEMBL2016

>  <target_name>
Coagulation factor IX

>  <organism>
Homo sapiens

>  <target_type>
SINGLE PROTEIN

$$$$

  Mrv0541 08052111042D          

 42 46  0  0  1  0            999 V2000
    8.6329   -2.2539    0.0000 C   0  0  0  0  0  0  0  0  0  0  0  0
    8.2204   -1.5395    0.0000 O   0  0  0  0  0  0  0  0  0  0  0  0
    7.3954   -1.5395    0.0000 C   0  0  0  0  0  0  0  0  0  0  0  0
    6.9829   -2.2539    0.0000 O   0  0  0  0  0  0  0  0  0  0  0  0
    6.9829   -0.8250    0.0000 N   0  0  0  0  0  0  0  0  0  0  0  0
    6.1579   -0.8250    0.0000 C   0  0  0  0  0  0  0  0  0  0  0  0
    5.7454   -0.1105    0.0000 C   0  0  0  0  0  0  0  0  0  0  0  0
    4.9204   -0.1105    0.0000 C   0  0  0  0  0  0  0  0  0  0  0  0
    4.5079   -0.8250    0.0000 C   0  0  0  0  0  0  0  0  0  0  0  0
    4.9204   -1.5395    0.0000 C   0  0  0  0  0  0  0  0  0  0  0  0
    5.7454   -1.5395    0.0000 C   0  0  0  0  0  0  0  0  0  0  0  0
    4.5079   -2.2539    0.0000 N   0  0  0  0  0  0  0  0  0  0  0  0
    4.9204   -2.9684    0.0000 C   0  0  0  0  0  0  0  0  0  0  0  0
    5.7454   -2.9684    0.0000 O   0  0  0  0  0  0  0  0  0  0  0  0
    4.5079   -3.6829    0.0000 C   0  0  2  0  0  0  0  0  0  0  0  0
    4.9204   -4.3974    0.0000 C   0  0  0  0  0  0  0  0  0  0  0  0
    3.6829   -3.6829    0.0000 C   0  0  0  0  0  0  0  0  0  0  0  0
    3.2704   -2.9684    0.0000 C   0  0  0  0  0  0  0  0  0  0  0  0
    2.4454   -2.9684    0.0000 C   0  0  0  0  0  0  0  0  0  0  0  0
    2.0329   -2.2539    0.0000 C   0  0  2  0  0  0  0  0  0  0  0  0
    1.2079   -2.2539    0.0000 N   0  0  0  0  0  0  0  0  0  0  0  0
    0.7954   -2.9684    0.0000 C   0  0  0  0  0  0  0  0  0  0  0  0
   -0.0296   -2.9684    0.0000 C   0  0  0  0  0  0  0  0  0  0  0  0
   -0.4421   -2.2539    0.0000 C   0  0  0  0  0  0  0  0  0  0  0  0
   -1.2671   -2.2539    0.0000 C   0  0  0  0  0  0  0  0  0  0  0  0
   -1.6796   -2.9684    0.0000 C   0  0  0  0  0  0  0  0  0  0  0  0
   -1.2671   -3.6829    0.0000 C   0  0  0  0  0  0  0  0  0  0  0  0
   -2.5046   -2.9684    0.0000 C   0  0  0  0  0  0  0  0  0  0  0  0
   -2.9171   -2.2539    0.0000 C   0  0  0  0  0  0  0  0  0  0  0  0
   -2.5046   -1.5395    0.0000 C   0  0  0  0  0  0  0  0  0  0  0  0
   -2.9171   -0.8250    0.0000 Cl  0  0  0  0  0  0  0  0  0  0  0  0
   -1.6796   -1.5395    0.0000 C   0  0  0  0  0  0  0  0  0  0  0  0
   -1.2671   -0.8250    0.0000 F   0  0  0  0  0  0  0  0  0  0  0  0
   -0.0296   -1.5395    0.0000 C   0  0  0  0  0  0  0  0  0  0  0  0
    0.7954   -1.5395    0.0000 C   0  0  0  0  0  0  0  0  0  0  0  0
    1.2079   -0.8250    0.0000 O   0  0  0  0  0  0  0  0  0  0  0  0
    2.4454   -1.5395    0.0000 C   0  0  0  0  0  0  0  0  0  0  0  0
    3.2704   -1.5395    0.0000 C   0  0  0  0  0  0  0  0  0  0  0  0
    3.6829   -0.8250    0.0000 C   0  0  0  0  0  0  0  0  0  0  0  0
    3.2704   -0.1105    0.0000 C   0  0  0  0  0  0  0  0  0  0  0  0
    2.4454   -0.1105    0.0000 C   0  0  0  0  0  0  0  0  0  0  0  0
    2.0329   -0.8250    0.0000 N   0  0  0  0  0  0  0  0  0  0  0  0
  1  2  1  0  0  0  0
  2  3  1  0  0  0  0
  3  4  2  0  0  0  0
  3  5  1  0  0  0  0
  5  6  1  0  0  0  0
  6  7  4  0  0  0  0
  7  8  4  0  0  0  0
  8  9  4  0  0  0  0
  9 10  4  0  0  0  0
 10 11  4  0  0  0  0
  6 11  4  0  0  0  0
 10 12  1  0  0  0  0
 12 13  1  0  0  0  0
 13 14  2  0  0  0  0
 13 15  1  0  0  0  0
 15 16  1  6  0  0  0
 15 17  1  0  0  0  0
 17 18  1  0  0  0  0
 18 19  1  0  0  0  0
 19 20  1  0  0  0  0
 20 21  1  6  0  0  0
 21 22  1  0  0  0  0
 22 23  1  0  0  0  0
 23 24  1  0  0  0  0
 24 25  1  0  0  0  0
 25 26  4  0  0  0  0
 26 27  1  0  0  0  0
 26 28  4  0  0  0  0
 28 29  4  0  0  0  0
 29 30  4  0  0  0  0
 30 31  1  0  0  0  0
 30 32  4  0  0  0  0
 25 32  4  0  0  0  0
 32 33  1  0  0  0  0
 24 34  2  0  0  0  0
 34 35  1  0  0  0  0
 21 35  1  0  0  0  0
 35 36  2  0  0  0  0
 20 37  1  0  0  0  0
 37 38  4  0  0  0  0
 38 39  4  0  0  0  0
  9 39  1  0  0  0  0
 39 40  4  0  0  0  0
 40 41  4  0  0  0  0
 41 42  4  0  0  0  0
 37 42  4  0  0  0  0
M  END
>  <CdId>
358606

>  <Mol Weight>
591.072

>  <Formula>
C32H32ClFN4O4

>  <cmpd_chemblid>
CHEMBL4114880

>  <std_type>
Ki

>  <std_value>
0.23

>  <std_unit>
nM

>  <target_id>
CHEMBL2016

>  <target_name>
Coagulation factor IX

>  <organism>
Homo sapiens

>  <target_type>
SINGLE PROTEIN

$$$$

  Mrv0541 08052111042D          

 46 51  0  0  0  0            999 V2000
   13.1619    1.5905    0.0000 C   0  0  0  0  0  0  0  0  0  0  0  0
   12.4475    1.1780    0.0000 S   0  0  0  0  0  0  0  0  0  0  0  0
   12.0350    1.8925    0.0000 O   0  0  0  0  0  0  0  0  0  0  0  0
   12.8600    0.4635    0.0000 O   0  0  0  0  0  0  0  0  0  0  0  0
   11.7330    0.7655    0.0000 C   0  0  0  0  0  0  0  0  0  0  0  0
   11.7330   -0.0595    0.0000 C   0  0  0  0  0  0  0  0  0  0  0  0
   11.0185   -0.4720    0.0000 C   0  0  0  0  0  0  0  0  0  0  0  0
   10.3041   -0.0595    0.0000 C   0  0  0  0  0  0  0  0  0  0  0  0
    9.5194   -0.3144    0.0000 N   0  0  0  0  0  0  0  0  0  0  0  0
    9.0345    0.3530    0.0000 C   0  0  0  0  0  0  0  0  0  0  0  0
    8.2095    0.3530    0.0000 N   0  0  0  0  0  0  0  0  0  0  0  0
    7.7970   -0.3615    0.0000 C   0  0  0  0  0  0  0  0  0  0  0  0
    8.2095   -1.0759    0.0000 O   0  0  0  0  0  0  0  0  0  0  0  0
    6.9720   -0.3615    0.0000 C   0  0  0  0  0  0  0  0  0  0  0  0
    6.5595   -1.0759    0.0000 C   0  0  0  0  0  0  0  0  0  0  0  0
    5.7345   -1.0759    0.0000 C   0  0  0  0  0  0  0  0  0  0  0  0
    5.3220   -0.3615    0.0000 C   0  0  0  0  0  0  0  0  0  0  0  0
    4.4970   -0.3615    0.0000 C   0  0  0  0  0  0  0  0  0  0  0  0
    4.0845    0.3530    0.0000 N   0  0  0  0  0  0  0  0  0  0  0  0
    3.2595    0.3530    0.0000 C   0  0  0  0  0  0  0  0  0  0  0  0
    2.8470   -0.3615    0.0000 O   0  0  0  0  0  0  0  0  0  0  0  0
    2.8470    1.0675    0.0000 C   0  0  0  0  0  0  0  0  0  0  0  0
    3.2595    1.7819    0.0000 C   0  0  0  0  0  0  0  0  0  0  0  0
    4.0845    1.7819    0.0000 C   0  0  0  0  0  0  0  0  0  0  0  0
    4.4970    2.4964    0.0000 C   0  0  0  0  0  0  0  0  0  0  0  0
    5.3220    2.4964    0.0000 C   0  0  0  0  0  0  0  0  0  0  0  0
    5.7345    1.7819    0.0000 C   0  0  0  0  0  0  0  0  0  0  0  0
    5.3220    1.0675    0.0000 C   0  0  0  0  0  0  0  0  0  0  0  0
    4.4970    1.0675    0.0000 C   0  0  0  0  0  0  0  0  0  0  0  0
    2.0220    1.0675    0.0000 C   0  0  0  0  0  0  0  0  0  0  0  0
    1.5371    0.4000    0.0000 C   0  0  0  0  0  0  0  0  0  0  0  0
    0.7525    0.6550    0.0000 N   0  0  0  0  0  0  0  0  0  0  0  0
    0.7525    1.4800    0.0000 C   0  0  0  0  0  0  0  0  0  0  0  0
    0.1394    2.0320    0.0000 C   0  0  0  0  0  0  0  0  0  0  0  0
    0.3109    2.8390    0.0000 C   0  0  0  0  0  0  0  0  0  0  0  0
    1.0955    3.0939    0.0000 C   0  0  0  0  0  0  0  0  0  0  0  0
    1.2670    3.9009    0.0000 C   0  0  0  0  0  0  0  0  0  0  0  0
    0.6540    4.4529    0.0000 N   0  0  0  0  0  0  0  0  0  0  0  0
    2.0517    4.1558    0.0000 N   0  0  0  0  0  0  0  0  0  0  0  0
    1.7086    2.5419    0.0000 C   0  0  0  0  0  0  0  0  0  0  0  0
    1.5371    1.7349    0.0000 C   0  0  0  0  0  0  0  0  0  0  0  0
    5.7345    0.3530    0.0000 C   0  0  0  0  0  0  0  0  0  0  0  0
    6.5595    0.3530    0.0000 C   0  0  0  0  0  0  0  0  0  0  0  0
    9.5194    1.0204    0.0000 N   0  0  0  0  0  0  0  0  0  0  0  0
   10.3041    0.7655    0.0000 C   0  0  0  0  0  0  0  0  0  0  0  0
   11.0185    1.1780    0.0000 C   0  0  0  0  0  0  0  0  0  0  0  0
  1  2  1  0  0  0  0
  2  3  2  0  0  0  0
  2  4  2  0  0  0  0
  2  5  1  0  0  0  0
  5  6  4  0  0  0  0
  6  7  4  0  0  0  0
  7  8  4  0  0  0  0
  8  9  4  0  0  0  0
  9 10  4  0  0  0  0
 10 11  1  0  0  0  0
 11 12  1  0  0  0  0
 12 13  2  0  0  0  0
 12 14  1  0  0  0  0
 14 15  4  0  0  0  0
 15 16  4  0  0  0  0
 16 17  4  0  0  0  0
 17 18  1  0  0  0  0
 18 19  1  0  0  0  0
 19 20  1  0  0  0  0
 20 21  2  0  0  0  0
 20 22  1  0  0  0  0
 22 23  1  0  0  0  0
 23 24  1  0  0  0  0
 24 25  4  0  0  0  0
 25 26  4  0  0  0  0
 26 27  4  0  0  0  0
 27 28  4  0  0  0  0
 28 29  4  0  0  0  0
 24 29  4  0  0  0  0
 22 30  1  0  0  0  0
 30 31  4  0  0  0  0
 31 32  4  0  0  0  0
 32 33  4  0  0  0  0
 33 34  4  0  0  0  0
 34 35  4  0  0  0  0
 35 36  4  0  0  0  0
 36 37  1  0  0  0  0
 37 38  2  0  0  0  0
 37 39  1  0  0  0  0
 36 40  4  0  0  0  0
 40 41  4  0  0  0  0
 30 41  4  0  0  0  0
 33 41  4  0  0  0  0
 17 42  4  0  0  0  0
 42 43  4  0  0  0  0
 14 43  4  0  0  0  0
 10 44  4  0  0  0  0
 44 45  4  0  0  0  0
  8 45  4  0  0  0  0
 45 46  4  0  0  0  0
  5 46  4  0  0  0  0
M  STY  2   1 DAT   2 DAT
M  SAL   1  1   9
M  SDT   1 MRV_IMPLICIT_H                                        
M  SDD   1     0.0000    0.0000    DR    ALL  0       0  
M  SED   1 IMPL_H1
M  SAL   2  1  32
M  SDT   2 MRV_IMPLICIT_H                                        
M  SDD   2     0.0000    0.0000    DR    ALL  0       0  
M  SED   2 IMPL_H1
M  END
>  <CdId>
358607

>  <Mol Weight>
633.719

>  <Formula>
C34H31N7O4S

>  <cmpd_chemblid>
CHEMBL363266

>  <std_type>
Ki

>  <std_value>
660.0

>  <std_unit>
nM

>  <target_id>
CHEMBL2016

>  <target_name>
Coagulation factor IX

>  <organism>
Homo sapiens

>  <target_type>
SINGLE PROTEIN

$$$$

  Mrv0541 08052111042D          

 44 49  0  0  1  0            999 V2000
    3.9849    3.9849    0.0000 C   0  0  0  0  0  0  0  0  0  0  0  0
    4.3974    3.2704    0.0000 C   0  0  2  0  0  0  0  0  0  0  0  0
    5.2224    3.2704    0.0000 C   0  0  0  0  0  0  0  0  0  0  0  0
    5.6349    2.5559    0.0000 C   0  0  0  0  0  0  0  0  0  0  0  0
    6.4599    2.5559    0.0000 C   0  0  0  0  0  0  0  0  0  0  0  0
    6.8724    1.8414    0.0000 C   0  0  2  0  0  0  0  0  0  0  0  0
    7.6974    1.8414    0.0000 N   0  0  0  0  0  0  0  0  0  0  0  0
    8.1099    2.5559    0.0000 C   0  0  0  0  0  0  0  0  0  0  0  0
    8.9349    2.5559    0.0000 C   0  0  0  0  0  0  0  0  0  0  0  0
    9.3474    1.8414    0.0000 C   0  0  0  0  0  0  0  0  0  0  0  0
   10.1724    1.8414    0.0000 C   0  0  0  0  0  0  0  0  0  0  0  0
   10.5849    2.5559    0.0000 C   0  0  0  0  0  0  0  0  0  0  0  0
   10.1724    3.2704    0.0000 F   0  0  0  0  0  0  0  0  0  0  0  0
   11.4099    2.5559    0.0000 C   0  0  0  0  0  0  0  0  0  0  0  0
   11.8224    1.8414    0.0000 C   0  0  0  0  0  0  0  0  0  0  0  0
   11.4099    1.1270    0.0000 C   0  0  0  0  0  0  0  0  0  0  0  0
   11.8224    0.4125    0.0000 Cl  0  0  0  0  0  0  0  0  0  0  0  0
   10.5849    1.1270    0.0000 C   0  0  0  0  0  0  0  0  0  0  0  0
   10.1724    0.4125    0.0000 F   0  0  0  0  0  0  0  0  0  0  0  0
    8.9349    1.1270    0.0000 C   0  0  0  0  0  0  0  0  0  0  0  0
    8.1099    1.1270    0.0000 C   0  0  0  0  0  0  0  0  0  0  0  0
    7.6974    0.4125    0.0000 O   0  0  0  0  0  0  0  0  0  0  0  0
    6.4599    1.1270    0.0000 C   0  0  0  0  0  0  0  0  0  0  0  0
    5.6349    1.1270    0.0000 C   0  0  0  0  0  0  0  0  0  0  0  0
    5.2224    0.4125    0.0000 C   0  0  0  0  0  0  0  0  0  0  0  0
    5.6349   -0.3020    0.0000 C   0  0  0  0  0  0  0  0  0  0  0  0
    6.4599   -0.3020    0.0000 C   0  0  0  0  0  0  0  0  0  0  0  0
    6.8724    0.4125    0.0000 N   0  0  0  0  0  0  0  0  0  0  0  0
    4.3974    0.4125    0.0000 C   0  0  0  0  0  0  0  0  0  0  0  0
    3.9849   -0.3020    0.0000 C   0  0  0  0  0  0  0  0  0  0  0  0
    3.1599   -0.3020    0.0000 C   0  0  0  0  0  0  0  0  0  0  0  0
    2.7474    0.4125    0.0000 C   0  0  0  0  0  0  0  0  0  0  0  0
    1.9224    0.4125    0.0000 N   0  0  0  0  0  0  0  0  0  0  0  0
    1.5099    1.1270    0.0000 C   0  0  0  0  0  0  0  0  0  0  0  0
    0.6849    1.1270    0.0000 C   0  0  0  0  0  0  0  0  0  0  0  0
    0.2724    1.8414    0.0000 C   0  0  0  0  0  0  0  0  0  0  0  0
    0.6849    2.5559    0.0000 C   0  0  0  0  0  0  0  0  0  0  0  0
    1.5099    2.5559    0.0000 C   0  0  0  0  0  0  0  0  0  0  0  0
    1.9224    1.8414    0.0000 N   0  0  0  0  0  0  0  0  0  0  0  0
    3.1599    1.1270    0.0000 C   0  0  0  0  0  0  0  0  0  0  0  0
    3.9849    1.1270    0.0000 C   0  0  0  0  0  0  0  0  0  0  0  0
    4.3974    1.8414    0.0000 N   0  0  0  0  0  0  0  0  0  0  0  0
    3.9849    2.5559    0.0000 C   0  0  0  0  0  0  0  0  0  0  0  0
    3.1599    2.5559    0.0000 O   0  0  0  0  0  0  0  0  0  0  0  0
  2  1  1  6  0  0  0
  2  3  1  0  0  0  0
  3  4  1  0  0  0  0
  4  5  1  0  0  0  0
  5  6  1  0  0  0  0
  6  7  1  6  0  0  0
  7  8  1  0  0  0  0
  8  9  1  0  0  0  0
  9 10  1  0  0  0  0
 10 11  1  0  0  0  0
 11 12  4  0  0  0  0
 12 13  1  0  0  0  0
 12 14  4  0  0  0  0
 14 15  4  0  0  0  0
 15 16  4  0  0  0  0
 16 17  1  0  0  0  0
 16 18  4  0  0  0  0
 11 18  4  0  0  0  0
 18 19  1  0  0  0  0
 10 20  2  0  0  0  0
 20 21  1  0  0  0  0
  7 21  1  0  0  0  0
 21 22  2  0  0  0  0
  6 23  1  0  0  0  0
 23 24  4  0  0  0  0
 24 25  4  0  0  0  0
 25 26  4  0  0  0  0
 26 27  4  0  0  0  0
 27 28  4  0  0  0  0
 23 28  4  0  0  0  0
 25 29  1  0  0  0  0
 29 30  4  0  0  0  0
 30 31  4  0  0  0  0
 31 32  4  0  0  0  0
 32 33  1  0  0  0  0
 33 34  1  0  0  0  0
 34 35  4  0  0  0  0
 35 36  4  0  0  0  0
 36 37  4  0  0  0  0
 37 38  4  0  0  0  0
 38 39  4  0  0  0  0
 34 39  4  0  0  0  0
 32 40  4  0  0  0  0
 40 41  4  0  0  0  0
 29 41  4  0  0  0  0
 41 42  1  0  0  0  0
 42 43  1  0  0  0  0
  2 43  1  0  0  0  0
 43 44  2  0  0  0  0
M  END
>  <CdId>
358608

>  <Mol Weight>
614.084

>  <Formula>
C34H30ClF2N5O2

>  <cmpd_chemblid>
CHEMBL4111433

>  <std_type>
Ki

>  <std_value>
1.04

>  <std_unit>
nM

>  <target_id>
CHEMBL2016

>  <target_name>
Coagulation factor IX

>  <organism>
Homo sapiens

>  <target_type>
SINGLE PROTEIN

$$$$

  Mrv0541 08052111042D          

 43 47  0  0  1  0            999 V2000
   -0.8546   -1.5395    0.0000 C   0  0  0  0  0  0  0  0  0  0  0  0
   -1.2671   -0.8250    0.0000 C   0  0  0  0  0  0  0  0  0  0  0  0
   -1.6796   -0.1105    0.0000 C   0  0  0  0  0  0  0  0  0  0  0  0
   -2.5046   -0.1105    0.0000 C   0  0  0  0  0  0  0  0  0  0  0  0
   -2.9171    0.6039    0.0000 C   0  0  0  0  0  0  0  0  0  0  0  0
   -2.5046    1.3184    0.0000 C   0  0  0  0  0  0  0  0  0  0  0  0
   -2.9171    2.0329    0.0000 Cl  0  0  0  0  0  0  0  0  0  0  0  0
   -1.6796    1.3184    0.0000 C   0  0  0  0  0  0  0  0  0  0  0  0
   -1.2671    2.0329    0.0000 F   0  0  0  0  0  0  0  0  0  0  0  0
   -1.2671    0.6039    0.0000 C   0  0  0  0  0  0  0  0  0  0  0  0
   -0.4421    0.6039    0.0000 C   0  0  0  0  0  0  0  0  0  0  0  0
   -0.0296    1.3184    0.0000 C   0  0  0  0  0  0  0  0  0  0  0  0
    0.7954    1.3184    0.0000 C   0  0  0  0  0  0  0  0  0  0  0  0
    1.2079    2.0329    0.0000 O   0  0  0  0  0  0  0  0  0  0  0  0
    1.2079    0.6039    0.0000 N   0  0  0  0  0  0  0  0  0  0  0  0
    2.0329    0.6039    0.0000 C   0  0  1  0  0  0  0  0  0  0  0  0
    2.4454    1.3184    0.0000 C   0  0  0  0  0  0  0  0  0  0  0  0
    3.2704    1.3184    0.0000 C   0  0  0  0  0  0  0  0  0  0  0  0
    3.6829    2.0329    0.0000 C   0  0  0  0  0  0  0  0  0  0  0  0
    4.5079    2.0329    0.0000 C   0  0  1  0  0  0  0  0  0  0  0  0
    4.9204    2.7474    0.0000 C   0  0  0  0  0  0  0  0  0  0  0  0
    4.9204    1.3184    0.0000 C   0  0  0  0  0  0  0  0  0  0  0  0
    5.7454    1.3184    0.0000 O   0  0  0  0  0  0  0  0  0  0  0  0
    4.5079    0.6039    0.0000 N   0  0  0  0  0  0  0  0  0  0  0  0
    4.9204   -0.1105    0.0000 C   0  0  0  0  0  0  0  0  0  0  0  0
    5.7454   -0.1105    0.0000 C   0  0  0  0  0  0  0  0  0  0  0  0
    6.1579   -0.8250    0.0000 C   0  0  0  0  0  0  0  0  0  0  0  0
    6.9829   -0.8250    0.0000 N   0  0  0  0  0  0  0  0  0  0  0  0
    7.3954   -0.1105    0.0000 C   0  0  0  0  0  0  0  0  0  0  0  0
    6.9829    0.6039    0.0000 O   0  0  0  0  0  0  0  0  0  0  0  0
    8.2204   -0.1105    0.0000 O   0  0  0  0  0  0  0  0  0  0  0  0
    8.6329    0.6039    0.0000 C   0  0  0  0  0  0  0  0  0  0  0  0
    5.7454   -1.5395    0.0000 C   0  0  0  0  0  0  0  0  0  0  0  0
    4.9204   -1.5395    0.0000 C   0  0  0  0  0  0  0  0  0  0  0  0
    4.5079   -0.8250    0.0000 C   0  0  0  0  0  0  0  0  0  0  0  0
    3.6829   -0.8250    0.0000 C   0  0  0  0  0  0  0  0  0  0  0  0
    3.2704   -1.5395    0.0000 C   0  0  0  0  0  0  0  0  0  0  0  0
    2.4454   -1.5395    0.0000 C   0  0  0  0  0  0  0  0  0  0  0  0
    2.0329   -0.8250    0.0000 N   0  0  0  0  0  0  0  0  0  0  0  0
    2.4454   -0.1105    0.0000 C   0  0  0  0  0  0  0  0  0  0  0  0
    3.2704   -0.1105    0.0000 C   0  0  0  0  0  0  0  0  0  0  0  0
    0.7954   -0.1105    0.0000 C   0  0  0  0  0  0  0  0  0  0  0  0
   -0.0296   -0.1105    0.0000 C   0  0  0  0  0  0  0  0  0  0  0  0
  1  2  3  0  0  0  0
  2  3  1  0  0  0  0
  3  4  4  0  0  0  0
  4  5  4  0  0  0  0
  5  6  4  0  0  0  0
  6  7  1  0  0  0  0
  6  8  4  0  0  0  0
  8  9  1  0  0  0  0
  8 10  4  0  0  0  0
  3 10  4  0  0  0  0
 10 11  1  0  0  0  0
 11 12  2  0  0  0  0
 12 13  1  0  0  0  0
 13 14  2  0  0  0  0
 13 15  1  0  0  0  0
 16 15  1  1  0  0  0
 16 17  1  0  0  0  0
 17 18  1  0  0  0  0
 18 19  1  0  0  0  0
 19 20  1  0  0  0  0
 20 21  1  1  0  0  0
 20 22  1  0  0  0  0
 22 23  2  0  0  0  0
 22 24  1  0  0  0  0
 24 25  1  0  0  0  0
 25 26  4  0  0  0  0
 26 27  4  0  0  0  0
 27 28  1  0  0  0  0
 28 29  1  0  0  0  0
 29 30  2  0  0  0  0
 29 31  1  0  0  0  0
 31 32  1  0  0  0  0
 27 33  4  0  0  0  0
 33 34  4  0  0  0  0
 34 35  4  0  0  0  0
 25 35  4  0  0  0  0
 35 36  1  0  0  0  0
 36 37  4  0  0  0  0
 37 38  4  0  0  0  0
 38 39  4  0  0  0  0
 39 40  4  0  0  0  0
 16 40  1  0  0  0  0
 40 41  4  0  0  0  0
 36 41  4  0  0  0  0
 15 42  1  0  0  0  0
 42 43  1  0  0  0  0
 11 43  1  0  0  0  0
M  END
>  <CdId>
358609

>  <Mol Weight>
601.067

>  <Formula>
C33H30ClFN4O4

>  <cmpd_chemblid>
CHEMBL4107808

>  <std_type>
Ki

>  <std_value>
0.1

>  <std_unit>
nM

>  <target_id>
CHEMBL2016

>  <target_name>
Coagulation factor IX

>  <organism>
Homo sapiens

>  <target_type>
SINGLE PROTEIN

$$$$

  Mrv0541 08052111042D          

 35 39  0  0  1  0            999 V2000
    2.7845    0.6979    0.0000 C   0  0  0  0  0  0  0  0  0  0  0  0
    2.0701    1.1104    0.0000 C   0  0  0  0  0  0  0  0  0  0  0  0
    1.3556    0.6979    0.0000 C   0  0  0  0  0  0  0  0  0  0  0  0
    0.6411    1.1104    0.0000 C   0  0  0  0  0  0  0  0  0  0  0  0
   -0.1435    0.8555    0.0000 N   0  0  0  0  0  0  0  0  0  0  0  0
   -0.6284    1.5229    0.0000 C   0  0  0  0  0  0  0  0  0  0  0  0
   -1.4534    1.5229    0.0000 C   0  0  1  0  0  0  0  0  0  0  0  0
   -1.8659    0.8085    0.0000 C   0  0  0  0  0  0  0  0  0  0  0  0
   -2.6909    0.8085    0.0000 N   0  0  0  0  0  0  0  0  0  0  0  0
   -3.1034    0.0940    0.0000 C   0  0  0  0  0  0  0  0  0  0  0  0
   -2.6909   -0.6205    0.0000 O   0  0  0  0  0  0  0  0  0  0  0  0
   -3.9284    0.0940    0.0000 C   0  0  0  0  0  0  0  0  0  0  0  0
   -4.3409   -0.6205    0.0000 C   0  0  0  0  0  0  0  0  0  0  0  0
   -5.1659   -0.6205    0.0000 C   0  0  0  0  0  0  0  0  0  0  0  0
   -5.5784    0.0940    0.0000 C   0  0  0  0  0  0  0  0  0  0  0  0
   -6.4034    0.0940    0.0000 N   0  0  0  0  0  0  0  0  0  0  0  0
   -6.8884   -0.5734    0.0000 C   0  0  0  0  0  0  0  0  0  0  0  0
   -7.6730   -0.3185    0.0000 N   0  0  0  0  0  0  0  0  0  0  0  0
   -7.6730    0.5065    0.0000 N   0  0  0  0  0  0  0  0  0  0  0  0
   -6.8884    0.7614    0.0000 C   0  0  0  0  0  0  0  0  0  0  0  0
   -5.1659    0.8085    0.0000 C   0  0  0  0  0  0  0  0  0  0  0  0
   -4.3409    0.8085    0.0000 C   0  0  0  0  0  0  0  0  0  0  0  0
   -3.9284    1.5229    0.0000 Cl  0  0  0  0  0  0  0  0  0  0  0  0
   -1.8659    2.2374    0.0000 C   0  0  0  0  0  0  0  0  0  0  0  0
   -2.6909    2.2374    0.0000 C   0  0  0  0  0  0  0  0  0  0  0  0
   -3.1034    2.9519    0.0000 C   0  0  0  0  0  0  0  0  0  0  0  0
   -2.6909    3.6664    0.0000 C   0  0  0  0  0  0  0  0  0  0  0  0
   -3.1034    4.3808    0.0000 F   0  0  0  0  0  0  0  0  0  0  0  0
   -1.8659    3.6664    0.0000 C   0  0  0  0  0  0  0  0  0  0  0  0
   -1.4534    2.9519    0.0000 C   0  0  0  0  0  0  0  0  0  0  0  0
   -0.1435    2.1904    0.0000 N   0  0  0  0  0  0  0  0  0  0  0  0
    0.6411    1.9354    0.0000 C   0  0  0  0  0  0  0  0  0  0  0  0
    1.3556    2.3479    0.0000 C   0  0  0  0  0  0  0  0  0  0  0  0
    2.0701    1.9354    0.0000 C   0  0  0  0  0  0  0  0  0  0  0  0
    2.7845    2.3479    0.0000 C   0  0  0  0  0  0  0  0  0  0  0  0
  1  2  1  0  0  0  0
  2  3  4  0  0  0  0
  3  4  4  0  0  0  0
  4  5  4  0  0  0  0
  5  6  4  0  0  0  0
  6  7  1  0  0  0  0
  7  8  1  0  0  0  0
  8  9  1  0  0  0  0
  9 10  1  0  0  0  0
 10 11  2  0  0  0  0
 10 12  1  0  0  0  0
 12 13  4  0  0  0  0
 13 14  4  0  0  0  0
 14 15  4  0  0  0  0
 15 16  1  0  0  0  0
 16 17  4  0  0  0  0
 17 18  4  0  0  0  0
 18 19  4  0  0  0  0
 19 20  4  0  0  0  0
 16 20  4  0  0  0  0
 15 21  4  0  0  0  0
 21 22  4  0  0  0  0
 12 22  4  0  0  0  0
 22 23  1  0  0  0  0
  7 24  1  1  0  0  0
 24 25  4  0  0  0  0
 25 26  4  0  0  0  0
 26 27  4  0  0  0  0
 27 28  1  0  0  0  0
 27 29  4  0  0  0  0
 29 30  4  0  0  0  0
 24 30  4  0  0  0  0
  6 31  4  0  0  0  0
 31 32  4  0  0  0  0
  4 32  4  0  0  0  0
 32 33  4  0  0  0  0
 33 34  4  0  0  0  0
  2 34  4  0  0  0  0
 34 35  1  0  0  0  0
M  STY  1   1 DAT
M  SAL   1  1  31
M  SDT   1 MRV_IMPLICIT_H                                        
M  SDD   1     0.0000    0.0000    DR    ALL  0       0  
M  SED   1 IMPL_H1
M  END
>  <CdId>
358611

>  <Mol Weight>
488.944

>  <Formula>
C26H22ClFN6O

>  <cmpd_chemblid>
CHEMBL3627872

>  <std_type>
Ki

>  <std_value>
8.4

>  <std_unit>
nM

>  <target_id>
CHEMBL2016

>  <target_name>
Coagulation factor IX

>  <organism>
Homo sapiens

>  <target_type>
SINGLE PROTEIN

$$$$

  Mrv0541 08052111042D          

 39 43  0  0  1  0            999 V2000
    1.4289   -2.4750    0.0000 N   0  0  0  0  0  0  0  0  0  0  0  0
    1.4289   -1.6500    0.0000 C   0  0  0  0  0  0  0  0  0  0  0  0
    0.7145   -1.2375    0.0000 N   0  0  0  0  0  0  0  0  0  0  0  0
    0.7145   -0.4125    0.0000 C   0  0  0  0  0  0  0  0  0  0  0  0
    1.4289    0.0000    0.0000 C   0  0  0  0  0  0  0  0  0  0  0  0
    2.1434   -0.4125    0.0000 C   0  0  0  0  0  0  0  0  0  0  0  0
    2.8579    0.0000    0.0000 C   0  0  0  0  0  0  0  0  0  0  0  0
    3.5724   -0.4125    0.0000 C   0  0  0  0  0  0  0  0  0  0  0  0
    4.2868   -0.0000    0.0000 C   0  0  0  0  0  0  0  0  0  0  0  0
    4.2868    0.8250    0.0000 C   0  0  2  0  0  0  0  0  0  0  0  0
    3.5724    1.2375    0.0000 C   0  0  0  0  0  0  0  0  0  0  0  0
    2.8579    0.8250    0.0000 O   0  0  0  0  0  0  0  0  0  0  0  0
    3.5724    2.0625    0.0000 O   0  0  0  0  0  0  0  0  0  0  0  0
    5.0013    1.2375    0.0000 N   0  0  0  0  0  0  0  0  0  0  0  0
    5.0875    2.0580    0.0000 C   0  0  0  0  0  0  0  0  0  0  0  0
    5.8945    2.2295    0.0000 C   0  0  0  0  0  0  0  0  0  0  0  0
    6.3070    1.5150    0.0000 C   0  0  2  0  0  0  0  0  0  0  0  0
    7.1275    1.4288    0.0000 N   0  0  0  0  0  0  0  0  0  0  0  0
    7.6124    2.0962    0.0000 S   0  0  0  0  0  0  0  0  0  0  0  0
    8.2798    1.6113    0.0000 O   0  0  0  0  0  0  0  0  0  0  0  0
    6.9450    2.5812    0.0000 O   0  0  0  0  0  0  0  0  0  0  0  0
    8.0973    2.7637    0.0000 C   0  0  0  0  0  0  0  0  0  0  0  0
    7.8424    3.5483    0.0000 C   0  0  0  0  0  0  0  0  0  0  0  0
    8.5098    4.0332    0.0000 N   0  0  0  0  0  0  0  0  0  0  0  0
    9.1773    3.5483    0.0000 C   0  0  0  0  0  0  0  0  0  0  0  0
    9.9619    3.8032    0.0000 N   0  0  0  0  0  0  0  0  0  0  0  0
   10.3364    4.5383    0.0000 C   0  0  0  0  0  0  0  0  0  0  0  0
   11.0715    4.1638    0.0000 C   0  0  0  0  0  0  0  0  0  0  0  0
   10.6970    3.4287    0.0000 C   0  0  0  0  0  0  0  0  0  0  0  0
    8.9223    2.7637    0.0000 S   0  0  0  0  0  0  0  0  0  0  0  0
    5.7550    0.9019    0.0000 C   0  0  0  0  0  0  0  0  0  0  0  0
    5.9265    0.0950    0.0000 O   0  0  0  0  0  0  0  0  0  0  0  0
    3.5724   -1.2375    0.0000 C   0  0  0  0  0  0  0  0  0  0  0  0
    4.2868   -1.6500    0.0000 C   0  0  0  0  0  0  0  0  0  0  0  0
    5.0013   -2.0625    0.0000 F   0  0  0  0  0  0  0  0  0  0  0  0
    3.8743   -2.3645    0.0000 F   0  0  0  0  0  0  0  0  0  0  0  0
    4.6993   -0.9355    0.0000 F   0  0  0  0  0  0  0  0  0  0  0  0
    2.8579   -1.6500    0.0000 C   0  0  0  0  0  0  0  0  0  0  0  0
    2.1434   -1.2375    0.0000 C   0  0  0  0  0  0  0  0  0  0  0  0
  1  2  1  0  0  0  0
  2  3  4  0  0  0  0
  3  4  4  0  0  0  0
  4  5  4  0  0  0  0
  5  6  4  0  0  0  0
  6  7  4  0  0  0  0
  7  8  4  0  0  0  0
  8  9  1  0  0  0  0
  9 10  1  0  0  0  0
 10 11  1  0  0  0  0
 11 12  2  0  0  0  0
 11 13  1  0  0  0  0
 10 14  1  6  0  0  0
 14 15  1  0  0  0  0
 15 16  1  0  0  0  0
 16 17  1  0  0  0  0
 17 18  1  6  0  0  0
 18 19  1  0  0  0  0
 19 20  2  0  0  0  0
 19 21  2  0  0  0  0
 19 22  1  0  0  0  0
 22 23  4  0  0  0  0
 23 24  4  0  0  0  0
 24 25  4  0  0  0  0
 25 26  1  0  0  0  0
 26 27  1  0  0  0  0
 27 28  1  0  0  0  0
 28 29  1  0  0  0  0
 26 29  1  0  0  0  0
 25 30  4  0  0  0  0
 22 30  4  0  0  0  0
 17 31  1  0  0  0  0
 14 31  1  0  0  0  0
 31 32  2  0  0  0  0
  8 33  4  0  0  0  0
 33 34  1  0  0  0  0
 34 35  1  0  0  0  0
 34 36  1  0  0  0  0
 34 37  1  0  0  0  0
 33 38  4  0  0  0  0
 38 39  4  0  0  0  0
  2 39  4  0  0  0  0
  6 39  4  0  0  0  0
M  END
>  <CdId>
358612

>  <Mol Weight>
584.591

>  <Formula>
C23H23F3N6O5S2

>  <cmpd_chemblid>
CHEMBL3958498

>  <std_type>
Ki

>  <std_value>
95.0

>  <std_unit>
nM

>  <target_id>
CHEMBL2016

>  <target_name>
Coagulation factor IX

>  <organism>
Homo sapiens

>  <target_type>
SINGLE PROTEIN

$$$$

  Mrv0541 08052111042D          

 25 27  0  0  0  0            999 V2000
   -1.4289   -3.3000    0.0000 C   0  0  0  0  0  0  0  0  0  0  0  0
   -0.7145   -3.7125    0.0000 C   0  0  0  0  0  0  0  0  0  0  0  0
   -0.7145   -4.5375    0.0000 O   0  0  0  0  0  0  0  0  0  0  0  0
    0.0000   -3.3000    0.0000 N   0  0  0  0  0  0  0  0  0  0  0  0
    0.7145   -3.7125    0.0000 C   0  0  0  0  0  0  0  0  0  0  0  0
    1.4289   -3.3000    0.0000 C   0  0  0  0  0  0  0  0  0  0  0  0
    2.1434   -3.7125    0.0000 O   0  0  0  0  0  0  0  0  0  0  0  0
    2.8579   -3.3000    0.0000 C   0  0  0  0  0  0  0  0  0  0  0  0
    2.8579   -2.4750    0.0000 C   0  0  0  0  0  0  0  0  0  0  0  0
    3.5724   -2.0625    0.0000 C   0  0  0  0  0  0  0  0  0  0  0  0
    4.2868   -2.4750    0.0000 C   0  0  0  0  0  0  0  0  0  0  0  0
    4.2868   -3.3000    0.0000 C   0  0  0  0  0  0  0  0  0  0  0  0
    4.8999   -3.8520    0.0000 S   0  0  0  0  0  0  0  0  0  0  0  0
    4.5644   -4.6057    0.0000 C   0  0  0  0  0  0  0  0  0  0  0  0
    4.9769   -5.3202    0.0000 C   0  0  0  0  0  0  0  0  0  0  0  0
    5.8019   -5.3202    0.0000 N   0  0  0  0  0  0  0  0  0  0  0  0
    4.5644   -6.0346    0.0000 N   0  0  0  0  0  0  0  0  0  0  0  0
    3.7439   -4.5195    0.0000 C   0  0  0  0  0  0  0  0  0  0  0  0
    3.5724   -3.7125    0.0000 C   0  0  0  0  0  0  0  0  0  0  0  0
    1.4289   -2.4750    0.0000 C   0  0  0  0  0  0  0  0  0  0  0  0
    0.7145   -2.0625    0.0000 C   0  0  0  0  0  0  0  0  0  0  0  0
    0.7145   -1.2375    0.0000 C   0  0  0  0  0  0  0  0  0  0  0  0
    1.4289   -0.8250    0.0000 C   0  0  0  0  0  0  0  0  0  0  0  0
    2.1434   -1.2375    0.0000 C   0  0  0  0  0  0  0  0  0  0  0  0
    2.1434   -2.0625    0.0000 C   0  0  0  0  0  0  0  0  0  0  0  0
  1  2  1  0  0  0  0
  2  3  2  0  0  0  0
  2  4  1  0  0  0  0
  4  5  1  0  0  0  0
  5  6  1  0  0  0  0
  6  7  1  0  0  0  0
  7  8  1  0  0  0  0
  8  9  4  0  0  0  0
  9 10  4  0  0  0  0
 10 11  4  0  0  0  0
 11 12  4  0  0  0  0
 12 13  4  0  0  0  0
 13 14  4  0  0  0  0
 14 15  1  0  0  0  0
 15 16  2  0  0  0  0
 15 17  1  0  0  0  0
 14 18  4  0  0  0  0
 18 19  4  0  0  0  0
  8 19  4  0  0  0  0
 12 19  4  0  0  0  0
  6 20  1  0  0  0  0
 20 21  4  0  0  0  0
 21 22  4  0  0  0  0
 22 23  4  0  0  0  0
 23 24  4  0  0  0  0
 24 25  4  0  0  0  0
 20 25  4  0  0  0  0
M  END
>  <CdId>
358613

>  <Mol Weight>
353.438

>  <Formula>
C19H19N3O2S

>  <cmpd_chemblid>
CHEMBL599615

>  <std_type>
Ki

>  <std_value>
340.0

>  <std_unit>
nM

>  <target_id>
CHEMBL2016

>  <target_name>
Coagulation factor IX

>  <organism>
Homo sapiens

>  <target_type>
SINGLE PROTEIN

$$$$

  Mrv0541 08052111042D          

 41 46  0  0  1  0            999 V2000
    7.9362   -0.3063    0.0000 C   0  0  0  0  0  0  0  0  0  0  0  0
    7.1602   -0.5866    0.0000 C   0  0  0  0  0  0  0  0  0  0  0  0
    6.4774   -0.1236    0.0000 C   0  0  0  0  0  0  0  0  0  0  0  0
    5.8261   -0.6299    0.0000 C   0  0  0  0  0  0  0  0  0  0  0  0
    5.0139   -0.4847    0.0000 C   0  0  0  0  0  0  0  0  0  0  0  0
    4.4821   -1.1154    0.0000 C   0  0  0  0  0  0  0  0  0  0  0  0
    4.7624   -1.8914    0.0000 C   0  0  0  0  0  0  0  0  0  0  0  0
    5.5745   -2.0366    0.0000 C   0  0  0  0  0  0  0  0  0  0  0  0
    6.1064   -1.4059    0.0000 C   0  0  0  0  0  0  0  0  0  0  0  0
    6.9309   -1.3791    0.0000 N   0  0  0  0  0  0  0  0  0  0  0  0
    4.2306   -2.5221    0.0000 N   0  0  0  0  0  0  0  0  0  0  0  0
    4.5109   -3.2980    0.0000 C   0  0  0  0  0  0  0  0  0  0  0  0
    5.3230   -3.4432    0.0000 O   0  0  0  0  0  0  0  0  0  0  0  0
    3.9791   -3.9287    0.0000 C   0  0  2  0  0  0  0  0  0  0  0  0
    4.2594   -4.7046    0.0000 C   0  0  0  0  0  0  0  0  0  0  0  0
    3.1670   -3.7835    0.0000 C   0  0  0  0  0  0  0  0  0  0  0  0
    2.8867   -3.0076    0.0000 C   0  0  0  0  0  0  0  0  0  0  0  0
    2.0745   -2.8623    0.0000 C   0  0  0  0  0  0  0  0  0  0  0  0
    1.7942   -2.0864    0.0000 C   0  0  2  0  0  0  0  0  0  0  0  0
    0.9821   -1.9412    0.0000 N   0  0  0  0  0  0  0  0  0  0  0  0
    0.4503   -2.5719    0.0000 C   0  0  0  0  0  0  0  0  0  0  0  0
   -0.3618   -2.4267    0.0000 C   0  0  0  0  0  0  0  0  0  0  0  0
   -0.6421   -1.6508    0.0000 C   0  0  0  0  0  0  0  0  0  0  0  0
   -1.4542   -1.5056    0.0000 C   0  0  0  0  0  0  0  0  0  0  0  0
   -1.9861   -2.1363    0.0000 C   0  0  0  0  0  0  0  0  0  0  0  0
   -1.7058   -2.9122    0.0000 F   0  0  0  0  0  0  0  0  0  0  0  0
   -2.7982   -1.9910    0.0000 C   0  0  0  0  0  0  0  0  0  0  0  0
   -3.0785   -1.2151    0.0000 C   0  0  0  0  0  0  0  0  0  0  0  0
   -2.5467   -0.5844    0.0000 C   0  0  0  0  0  0  0  0  0  0  0  0
   -2.8270    0.1915    0.0000 Cl  0  0  0  0  0  0  0  0  0  0  0  0
   -1.7345   -0.7296    0.0000 C   0  0  0  0  0  0  0  0  0  0  0  0
   -1.2027   -0.0989    0.0000 F   0  0  0  0  0  0  0  0  0  0  0  0
   -0.1103   -1.0201    0.0000 C   0  0  0  0  0  0  0  0  0  0  0  0
    0.7018   -1.1653    0.0000 C   0  0  0  0  0  0  0  0  0  0  0  0
    1.2336   -0.5346    0.0000 O   0  0  0  0  0  0  0  0  0  0  0  0
    2.3261   -1.4557    0.0000 C   0  0  0  0  0  0  0  0  0  0  0  0
    3.1382   -1.6009    0.0000 C   0  0  0  0  0  0  0  0  0  0  0  0
    3.6700   -0.9702    0.0000 C   0  0  0  0  0  0  0  0  0  0  0  0
    3.3897   -0.1943    0.0000 C   0  0  0  0  0  0  0  0  0  0  0  0
    2.5776   -0.0491    0.0000 C   0  0  0  0  0  0  0  0  0  0  0  0
    2.0458   -0.6798    0.0000 N   0  0  0  0  0  0  0  0  0  0  0  0
  1  2  1  0  0  0  0
  2  3  4  0  0  0  0
  3  4  4  0  0  0  0
  4  5  4  0  0  0  0
  5  6  4  0  0  0  0
  6  7  4  0  0  0  0
  7  8  4  0  0  0  0
  8  9  4  0  0  0  0
  4  9  4  0  0  0  0
  9 10  4  0  0  0  0
  2 10  4  0  0  0  0
  7 11  1  0  0  0  0
 11 12  1  0  0  0  0
 12 13  2  0  0  0  0
 12 14  1  0  0  0  0
 14 15  1  6  0  0  0
 14 16  1  0  0  0  0
 16 17  1  0  0  0  0
 17 18  1  0  0  0  0
 18 19  1  0  0  0  0
 19 20  1  6  0  0  0
 20 21  1  0  0  0  0
 21 22  1  0  0  0  0
 22 23  1  0  0  0  0
 23 24  1  0  0  0  0
 24 25  4  0  0  0  0
 25 26  1  0  0  0  0
 25 27  4  0  0  0  0
 27 28  4  0  0  0  0
 28 29  4  0  0  0  0
 29 30  1  0  0  0  0
 29 31  4  0  0  0  0
 24 31  4  0  0  0  0
 31 32  1  0  0  0  0
 23 33  2  0  0  0  0
 33 34  1  0  0  0  0
 20 34  1  0  0  0  0
 34 35  2  0  0  0  0
 19 36  1  0  0  0  0
 36 37  4  0  0  0  0
 37 38  4  0  0  0  0
  6 38  1  0  0  0  0
 38 39  4  0  0  0  0
 39 40  4  0  0  0  0
 40 41  4  0  0  0  0
 36 41  4  0  0  0  0
M  STY  1   1 DAT
M  SAL   1  1  10
M  SDT   1 MRV_IMPLICIT_H                                        
M  SDD   1     0.0000    0.0000    DR    ALL  0       0  
M  SED   1 IMPL_H1
M  END
>  <CdId>
358614

>  <Mol Weight>
575.048

>  <Formula>
C32H29ClF2N4O2

>  <cmpd_chemblid>
CHEMBL4107699

>  <std_type>
Ki

>  <std_value>
9.17

>  <std_unit>
nM

>  <target_id>
CHEMBL2016

>  <target_name>
Coagulation factor IX

>  <organism>
Homo sapiens

>  <target_type>
SINGLE PROTEIN

$$$$

  Mrv0541 08052111042D          

 38 42  0  0  1  0            999 V2000
    0.0000    0.8250    0.0000 C   0  0  0  0  0  0  0  0  0  0  0  0
    0.0000    0.0000    0.0000 C   0  0  0  0  0  0  0  0  0  0  0  0
    0.7145   -0.4125    0.0000 C   0  0  0  0  0  0  0  0  0  0  0  0
    1.4289    0.0000    0.0000 C   0  0  0  0  0  0  0  0  0  0  0  0
    2.1434   -0.4125    0.0000 C   0  0  0  0  0  0  0  0  0  0  0  0
    2.8579    0.0000    0.0000 C   0  0  0  0  0  0  0  0  0  0  0  0
    2.8579    0.8250    0.0000 N   0  0  0  0  0  0  0  0  0  0  0  0
    3.5724   -0.4125    0.0000 N   0  0  0  0  0  0  0  0  0  0  0  0
    3.5724   -1.2375    0.0000 C   0  0  0  0  0  0  0  0  0  0  0  0
    2.8579   -1.6500    0.0000 C   0  0  0  0  0  0  0  0  0  0  0  0
    2.1434   -1.2375    0.0000 C   0  0  0  0  0  0  0  0  0  0  0  0
    1.4289   -1.6500    0.0000 C   0  0  0  0  0  0  0  0  0  0  0  0
    0.7145   -1.2375    0.0000 C   0  0  0  0  0  0  0  0  0  0  0  0
    0.0000   -1.6500    0.0000 C   0  0  0  0  0  0  0  0  0  0  0  0
    0.0000   -2.4750    0.0000 C   0  0  2  0  0  0  0  0  0  0  0  0
   -0.7145   -2.8875    0.0000 C   0  0  0  0  0  0  0  0  0  0  0  0
   -0.7145   -3.7125    0.0000 O   0  0  0  0  0  0  0  0  0  0  0  0
   -1.4289   -2.4750    0.0000 O   0  0  0  0  0  0  0  0  0  0  0  0
    0.7145   -2.8875    0.0000 N   0  0  0  0  0  0  0  0  0  0  0  0
    1.4681   -2.5519    0.0000 C   0  0  0  0  0  0  0  0  0  0  0  0
    2.0202   -3.1650    0.0000 C   0  0  0  0  0  0  0  0  0  0  0  0
    1.6077   -3.8795    0.0000 C   0  0  2  0  0  0  0  0  0  0  0  0
    1.9432   -4.6332    0.0000 N   0  0  0  0  0  0  0  0  0  0  0  0
    2.7637   -4.7194    0.0000 S   0  0  0  0  0  0  0  0  0  0  0  0
    2.6775   -5.5399    0.0000 O   0  0  0  0  0  0  0  0  0  0  0  0
    2.8500   -3.8989    0.0000 O   0  0  0  0  0  0  0  0  0  0  0  0
    3.5842   -4.8057    0.0000 C   0  0  0  0  0  0  0  0  0  0  0  0
    4.1362   -4.1926    0.0000 C   0  0  0  0  0  0  0  0  0  0  0  0
    4.8899   -4.5281    0.0000 N   0  0  0  0  0  0  0  0  0  0  0  0
    4.8037   -5.3486    0.0000 C   0  0  0  0  0  0  0  0  0  0  0  0
    5.4168   -5.9006    0.0000 N   0  0  0  0  0  0  0  0  0  0  0  0
    6.2237   -5.7291    0.0000 C   0  0  0  0  0  0  0  0  0  0  0  0
    6.6362   -6.4436    0.0000 C   0  0  0  0  0  0  0  0  0  0  0  0
    6.0842   -7.0567    0.0000 C   0  0  0  0  0  0  0  0  0  0  0  0
    5.3305   -6.7211    0.0000 C   0  0  0  0  0  0  0  0  0  0  0  0
    3.9967   -5.5201    0.0000 S   0  0  0  0  0  0  0  0  0  0  0  0
    0.8007   -3.7080    0.0000 C   0  0  0  0  0  0  0  0  0  0  0  0
    0.1876   -4.2600    0.0000 O   0  0  0  0  0  0  0  0  0  0  0  0
  1  2  1  0  0  0  0
  2  3  1  0  0  0  0
  3  4  4  0  0  0  0
  4  5  4  0  0  0  0
  5  6  4  0  0  0  0
  6  7  1  0  0  0  0
  6  8  4  0  0  0  0
  8  9  4  0  0  0  0
  9 10  4  0  0  0  0
 10 11  4  0  0  0  0
  5 11  4  0  0  0  0
 11 12  4  0  0  0  0
 12 13  4  0  0  0  0
  3 13  4  0  0  0  0
 13 14  1  0  0  0  0
 14 15  1  0  0  0  0
 15 16  1  0  0  0  0
 16 17  2  0  0  0  0
 16 18  1  0  0  0  0
 15 19  1  1  0  0  0
 19 20  1  0  0  0  0
 20 21  1  0  0  0  0
 21 22  1  0  0  0  0
 22 23  1  6  0  0  0
 23 24  1  0  0  0  0
 24 25  2  0  0  0  0
 24 26  2  0  0  0  0
 24 27  1  0  0  0  0
 27 28  4  0  0  0  0
 28 29  4  0  0  0  0
 29 30  4  0  0  0  0
 30 31  1  0  0  0  0
 31 32  1  0  0  0  0
 32 33  1  0  0  0  0
 33 34  1  0  0  0  0
 34 35  1  0  0  0  0
 31 35  1  0  0  0  0
 30 36  4  0  0  0  0
 27 36  4  0  0  0  0
 22 37  1  0  0  0  0
 19 37  1  0  0  0  0
 37 38  2  0  0  0  0
M  END
>  <CdId>
358615

>  <Mol Weight>
558.673

>  <Formula>
C25H30N6O5S2

>  <cmpd_chemblid>
CHEMBL3958851

>  <std_type>
Ki

>  <std_value>
90.0

>  <std_unit>
nM

>  <target_id>
CHEMBL2016

>  <target_name>
Coagulation factor IX

>  <organism>
Homo sapiens

>  <target_type>
SINGLE PROTEIN

$$$$

  Mrv0541 08052111042D          

 32 36  0  0  0  0            999 V2000
    1.4358   -2.7631    0.0000 C   0  0  0  0  0  0  0  0  0  0  0  0
    0.8838   -2.1500    0.0000 C   0  0  0  0  0  0  0  0  0  0  0  0
    0.0768   -2.3215    0.0000 C   0  0  0  0  0  0  0  0  0  0  0  0
   -0.4752   -1.7084    0.0000 O   0  0  0  0  0  0  0  0  0  0  0  0
   -0.1781   -3.1062    0.0000 N   0  0  0  0  0  0  0  0  0  0  0  0
   -0.9851   -3.2777    0.0000 C   0  0  0  0  0  0  0  0  0  0  0  0
   -1.2400   -4.0623    0.0000 C   0  0  0  0  0  0  0  0  0  0  0  0
   -2.0470   -4.2338    0.0000 C   0  0  0  0  0  0  0  0  0  0  0  0
   -2.5990   -3.6207    0.0000 C   0  0  0  0  0  0  0  0  0  0  0  0
   -3.4060   -3.7923    0.0000 N   0  0  0  0  0  0  0  0  0  0  0  0
   -3.7416   -4.5459    0.0000 C   0  0  0  0  0  0  0  0  0  0  0  0
   -4.5621   -4.4597    0.0000 N   0  0  0  0  0  0  0  0  0  0  0  0
   -4.7336   -3.6527    0.0000 C   0  0  0  0  0  0  0  0  0  0  0  0
   -5.4481   -3.2402    0.0000 C   0  0  0  0  0  0  0  0  0  0  0  0
   -5.4481   -2.4152    0.0000 C   0  0  0  0  0  0  0  0  0  0  0  0
   -4.7336   -2.0027    0.0000 C   0  0  0  0  0  0  0  0  0  0  0  0
   -4.0191   -2.4152    0.0000 C   0  0  0  0  0  0  0  0  0  0  0  0
   -4.0191   -3.2402    0.0000 C   0  0  0  0  0  0  0  0  0  0  0  0
   -2.3441   -2.8361    0.0000 C   0  0  0  0  0  0  0  0  0  0  0  0
   -1.5371   -2.6646    0.0000 C   0  0  0  0  0  0  0  0  0  0  0  0
    1.1387   -1.3654    0.0000 C   0  0  0  0  0  0  0  0  0  0  0  0
    0.6538   -0.6979    0.0000 C   0  0  0  0  0  0  0  0  0  0  0  0
    1.1387   -0.0305    0.0000 N   0  0  0  0  0  0  0  0  0  0  0  0
    1.9233   -0.2854    0.0000 C   0  0  0  0  0  0  0  0  0  0  0  0
    2.6378    0.1271    0.0000 C   0  0  0  0  0  0  0  0  0  0  0  0
    3.3523   -0.2854    0.0000 C   0  0  0  0  0  0  0  0  0  0  0  0
    3.3523   -1.1104    0.0000 C   0  0  0  0  0  0  0  0  0  0  0  0
    4.0668   -1.5229    0.0000 C   0  0  0  0  0  0  0  0  0  0  0  0
    4.7812   -1.1104    0.0000 N   0  0  0  0  0  0  0  0  0  0  0  0
    4.0668   -2.3479    0.0000 N   0  0  0  0  0  0  0  0  0  0  0  0
    2.6378   -1.5229    0.0000 C   0  0  0  0  0  0  0  0  0  0  0  0
    1.9233   -1.1104    0.0000 C   0  0  0  0  0  0  0  0  0  0  0  0
  1  2  1  0  0  0  0
  2  3  1  0  0  0  0
  3  4  2  0  0  0  0
  3  5  1  0  0  0  0
  5  6  1  0  0  0  0
  6  7  4  0  0  0  0
  7  8  4  0  0  0  0
  8  9  4  0  0  0  0
  9 10  1  0  0  0  0
 10 11  4  0  0  0  0
 11 12  4  0  0  0  0
 12 13  4  0  0  0  0
 13 14  4  0  0  0  0
 14 15  4  0  0  0  0
 15 16  4  0  0  0  0
 16 17  4  0  0  0  0
 17 18  4  0  0  0  0
 13 18  4  0  0  0  0
 10 18  4  0  0  0  0
  9 19  4  0  0  0  0
 19 20  4  0  0  0  0
  6 20  4  0  0  0  0
  2 21  1  0  0  0  0
 21 22  4  0  0  0  0
 22 23  4  0  0  0  0
 23 24  4  0  0  0  0
 24 25  4  0  0  0  0
 25 26  4  0  0  0  0
 26 27  4  0  0  0  0
 27 28  1  0  0  0  0
 28 29  2  0  0  0  0
 28 30  1  0  0  0  0
 27 31  4  0  0  0  0
 31 32  4  0  0  0  0
 21 32  4  0  0  0  0
 24 32  4  0  0  0  0
M  STY  1   1 DAT
M  SAL   1  1  23
M  SDT   1 MRV_IMPLICIT_H                                        
M  SDD   1     0.0000    0.0000    DR    ALL  0       0  
M  SED   1 IMPL_H1
M  END
>  <CdId>
358616

>  <Mol Weight>
422.4818

>  <Formula>
C25H22N6O

>  <cmpd_chemblid>
CHEMBL185269

>  <std_type>
Ki

>  <std_value>
480.0

>  <std_unit>
nM

>  <target_id>
CHEMBL2016

>  <target_name>
Coagulation factor IX

>  <organism>
Homo sapiens

>  <target_type>
SINGLE PROTEIN

$$$$

  Mrv0541 08052111042D          

 33 36  0  0  0  0            999 V2000
   -4.2868   -5.7750    0.0000 C   0  0  0  0  0  0  0  0  0  0  0  0
   -4.2868   -4.9500    0.0000 O   0  0  0  0  0  0  0  0  0  0  0  0
   -3.5724   -4.5375    0.0000 C   0  0  0  0  0  0  0  0  0  0  0  0
   -3.5724   -3.7125    0.0000 C   0  0  0  0  0  0  0  0  0  0  0  0
   -2.8579   -3.3000    0.0000 C   0  0  0  0  0  0  0  0  0  0  0  0
   -2.1434   -3.7125    0.0000 C   0  0  0  0  0  0  0  0  0  0  0  0
   -1.4289   -3.3000    0.0000 N   0  0  0  0  0  0  0  0  0  0  0  0
   -0.7145   -3.7125    0.0000 C   0  0  0  0  0  0  0  0  0  0  0  0
   -0.7145   -4.5375    0.0000 O   0  0  0  0  0  0  0  0  0  0  0  0
    0.0000   -3.3000    0.0000 O   0  0  0  0  0  0  0  0  0  0  0  0
    0.7145   -3.7125    0.0000 C   0  0  0  0  0  0  0  0  0  0  0  0
    1.4289   -3.3000    0.0000 C   0  0  0  0  0  0  0  0  0  0  0  0
    2.1434   -3.7125    0.0000 O   0  0  0  0  0  0  0  0  0  0  0  0
    2.8579   -3.3000    0.0000 C   0  0  0  0  0  0  0  0  0  0  0  0
    2.8579   -2.4750    0.0000 C   0  0  0  0  0  0  0  0  0  0  0  0
    3.5724   -2.0625    0.0000 C   0  0  0  0  0  0  0  0  0  0  0  0
    4.2868   -2.4750    0.0000 C   0  0  0  0  0  0  0  0  0  0  0  0
    4.2868   -3.3000    0.0000 C   0  0  0  0  0  0  0  0  0  0  0  0
    4.8999   -3.8520    0.0000 S   0  0  0  0  0  0  0  0  0  0  0  0
    4.5644   -4.6057    0.0000 C   0  0  0  0  0  0  0  0  0  0  0  0
    4.9769   -5.3202    0.0000 C   0  0  0  0  0  0  0  0  0  0  0  0
    5.8019   -5.3202    0.0000 N   0  0  0  0  0  0  0  0  0  0  0  0
    4.5644   -6.0346    0.0000 N   0  0  0  0  0  0  0  0  0  0  0  0
    3.7439   -4.5195    0.0000 C   0  0  0  0  0  0  0  0  0  0  0  0
    3.5724   -3.7125    0.0000 C   0  0  0  0  0  0  0  0  0  0  0  0
    1.4289   -2.4750    0.0000 C   0  0  0  0  0  0  0  0  0  0  0  0
    0.7145   -2.0625    0.0000 C   0  0  0  0  0  0  0  0  0  0  0  0
    0.7145   -1.2375    0.0000 C   0  0  0  0  0  0  0  0  0  0  0  0
    1.4289   -0.8250    0.0000 C   0  0  0  0  0  0  0  0  0  0  0  0
    2.1434   -1.2375    0.0000 C   0  0  0  0  0  0  0  0  0  0  0  0
    2.1434   -2.0625    0.0000 C   0  0  0  0  0  0  0  0  0  0  0  0
   -2.1434   -4.5375    0.0000 C   0  0  0  0  0  0  0  0  0  0  0  0
   -2.8579   -4.9500    0.0000 C   0  0  0  0  0  0  0  0  0  0  0  0
  1  2  1  0  0  0  0
  2  3  1  0  0  0  0
  3  4  4  0  0  0  0
  4  5  4  0  0  0  0
  5  6  4  0  0  0  0
  6  7  1  0  0  0  0
  7  8  1  0  0  0  0
  8  9  2  0  0  0  0
  8 10  1  0  0  0  0
 10 11  1  0  0  0  0
 11 12  1  0  0  0  0
 12 13  1  0  0  0  0
 13 14  1  0  0  0  0
 14 15  4  0  0  0  0
 15 16  4  0  0  0  0
 16 17  4  0  0  0  0
 17 18  4  0  0  0  0
 18 19  4  0  0  0  0
 19 20  4  0  0  0  0
 20 21  1  0  0  0  0
 21 22  2  0  0  0  0
 21 23  1  0  0  0  0
 20 24  4  0  0  0  0
 24 25  4  0  0  0  0
 14 25  4  0  0  0  0
 18 25  4  0  0  0  0
 12 26  1  0  0  0  0
 26 27  4  0  0  0  0
 27 28  4  0  0  0  0
 28 29  4  0  0  0  0
 29 30  4  0  0  0  0
 30 31  4  0  0  0  0
 26 31  4  0  0  0  0
  6 32  4  0  0  0  0
 32 33  4  0  0  0  0
  3 33  4  0  0  0  0
M  END
>  <CdId>
358617

>  <Mol Weight>
461.533

>  <Formula>
C25H23N3O4S

>  <cmpd_chemblid>
CHEMBL596764

>  <std_type>
Ki

>  <std_value>
5.0

>  <std_unit>
nM

>  <target_id>
CHEMBL2016

>  <target_name>
Coagulation factor IX

>  <organism>
Homo sapiens

>  <target_type>
SINGLE PROTEIN

$$$$

  Mrv0541 08052111042D          

 39 43  0  0  1  0            999 V2000
    0.7145    1.2375    0.0000 C   0  0  0  0  0  0  0  0  0  0  0  0
    0.0000    0.8250    0.0000 C   0  0  0  0  0  0  0  0  0  0  0  0
    0.0000    0.0000    0.0000 O   0  0  0  0  0  0  0  0  0  0  0  0
    0.7145   -0.4125    0.0000 C   0  0  0  0  0  0  0  0  0  0  0  0
    1.4289    0.0000    0.0000 C   0  0  0  0  0  0  0  0  0  0  0  0
    2.1434   -0.4125    0.0000 C   0  0  0  0  0  0  0  0  0  0  0  0
    2.8579    0.0000    0.0000 C   0  0  0  0  0  0  0  0  0  0  0  0
    2.8579    0.8250    0.0000 N   0  0  0  0  0  0  0  0  0  0  0  0
    3.5724   -0.4125    0.0000 N   0  0  0  0  0  0  0  0  0  0  0  0
    3.5724   -1.2375    0.0000 C   0  0  0  0  0  0  0  0  0  0  0  0
    2.8579   -1.6500    0.0000 C   0  0  0  0  0  0  0  0  0  0  0  0
    2.1434   -1.2375    0.0000 C   0  0  0  0  0  0  0  0  0  0  0  0
    1.4289   -1.6500    0.0000 C   0  0  0  0  0  0  0  0  0  0  0  0
    0.7145   -1.2375    0.0000 C   0  0  0  0  0  0  0  0  0  0  0  0
    0.0000   -1.6500    0.0000 C   0  0  0  0  0  0  0  0  0  0  0  0
    0.0000   -2.4750    0.0000 C   0  0  2  0  0  0  0  0  0  0  0  0
   -0.7145   -2.8875    0.0000 C   0  0  0  0  0  0  0  0  0  0  0  0
   -0.7145   -3.7125    0.0000 O   0  0  0  0  0  0  0  0  0  0  0  0
   -1.4289   -2.4750    0.0000 O   0  0  0  0  0  0  0  0  0  0  0  0
    0.7145   -2.8875    0.0000 N   0  0  0  0  0  0  0  0  0  0  0  0
    1.4681   -2.5519    0.0000 C   0  0  0  0  0  0  0  0  0  0  0  0
    2.0202   -3.1650    0.0000 C   0  0  0  0  0  0  0  0  0  0  0  0
    1.6077   -3.8795    0.0000 C   0  0  2  0  0  0  0  0  0  0  0  0
    1.9432   -4.6332    0.0000 N   0  0  0  0  0  0  0  0  0  0  0  0
    2.7637   -4.7194    0.0000 S   0  0  0  0  0  0  0  0  0  0  0  0
    2.6775   -5.5399    0.0000 O   0  0  0  0  0  0  0  0  0  0  0  0
    2.8500   -3.8989    0.0000 O   0  0  0  0  0  0  0  0  0  0  0  0
    3.5842   -4.8057    0.0000 C   0  0  0  0  0  0  0  0  0  0  0  0
    4.1362   -4.1926    0.0000 C   0  0  0  0  0  0  0  0  0  0  0  0
    4.8899   -4.5281    0.0000 N   0  0  0  0  0  0  0  0  0  0  0  0
    4.8037   -5.3486    0.0000 C   0  0  0  0  0  0  0  0  0  0  0  0
    5.4168   -5.9006    0.0000 N   0  0  0  0  0  0  0  0  0  0  0  0
    6.2237   -5.7291    0.0000 C   0  0  0  0  0  0  0  0  0  0  0  0
    6.6362   -6.4436    0.0000 C   0  0  0  0  0  0  0  0  0  0  0  0
    6.0842   -7.0567    0.0000 C   0  0  0  0  0  0  0  0  0  0  0  0
    5.3305   -6.7211    0.0000 C   0  0  0  0  0  0  0  0  0  0  0  0
    3.9967   -5.5201    0.0000 S   0  0  0  0  0  0  0  0  0  0  0  0
    0.8007   -3.7080    0.0000 C   0  0  0  0  0  0  0  0  0  0  0  0
    0.1876   -4.2600    0.0000 O   0  0  0  0  0  0  0  0  0  0  0  0
  1  2  1  0  0  0  0
  2  3  1  0  0  0  0
  3  4  1  0  0  0  0
  4  5  4  0  0  0  0
  5  6  4  0  0  0  0
  6  7  4  0  0  0  0
  7  8  1  0  0  0  0
  7  9  4  0  0  0  0
  9 10  4  0  0  0  0
 10 11  4  0  0  0  0
 11 12  4  0  0  0  0
  6 12  4  0  0  0  0
 12 13  4  0  0  0  0
 13 14  4  0  0  0  0
  4 14  4  0  0  0  0
 14 15  1  0  0  0  0
 15 16  1  0  0  0  0
 16 17  1  0  0  0  0
 17 18  2  0  0  0  0
 17 19  1  0  0  0  0
 16 20  1  1  0  0  0
 20 21  1  0  0  0  0
 21 22  1  0  0  0  0
 22 23  1  0  0  0  0
 23 24  1  6  0  0  0
 24 25  1  0  0  0  0
 25 26  2  0  0  0  0
 25 27  2  0  0  0  0
 25 28  1  0  0  0  0
 28 29  4  0  0  0  0
 29 30  4  0  0  0  0
 30 31  4  0  0  0  0
 31 32  1  0  0  0  0
 32 33  1  0  0  0  0
 33 34  1  0  0  0  0
 34 35  1  0  0  0  0
 35 36  1  0  0  0  0
 32 36  1  0  0  0  0
 31 37  4  0  0  0  0
 28 37  4  0  0  0  0
 23 38  1  0  0  0  0
 20 38  1  0  0  0  0
 38 39  2  0  0  0  0
M  END
>  <CdId>
358618

>  <Mol Weight>
574.672

>  <Formula>
C25H30N6O6S2

>  <cmpd_chemblid>
CHEMBL3917751

>  <std_type>
Ki

>  <std_value>
65.0

>  <std_unit>
nM

>  <target_id>
CHEMBL2016

>  <target_name>
Coagulation factor IX

>  <organism>
Homo sapiens

>  <target_type>
SINGLE PROTEIN

$$$$

  Mrv0541 08052111042D          

 39 43  0  0  1  0            999 V2000
    3.1599    3.9849    0.0000 C   0  0  0  0  0  0  0  0  0  0  0  0
    3.9849    3.9849    0.0000 C   0  0  0  0  0  0  0  0  0  0  0  0
    4.3974    4.6993    0.0000 C   0  0  0  0  0  0  0  0  0  0  0  0
    4.3974    3.2704    0.0000 C   0  0  2  0  0  0  0  0  0  0  0  0
    5.2224    3.2704    0.0000 C   0  0  0  0  0  0  0  0  0  0  0  0
    5.6349    2.5559    0.0000 C   0  0  0  0  0  0  0  0  0  0  0  0
    6.4599    2.5559    0.0000 C   0  0  0  0  0  0  0  0  0  0  0  0
    6.8724    1.8414    0.0000 C   0  0  2  0  0  0  0  0  0  0  0  0
    7.6974    1.8414    0.0000 N   0  0  0  0  0  0  0  0  0  0  0  0
    8.1099    2.5559    0.0000 C   0  0  0  0  0  0  0  0  0  0  0  0
    8.9349    2.5559    0.0000 C   0  0  0  0  0  0  0  0  0  0  0  0
    9.3474    1.8414    0.0000 C   0  0  0  0  0  0  0  0  0  0  0  0
   10.1724    1.8414    0.0000 C   0  0  0  0  0  0  0  0  0  0  0  0
   10.5849    2.5559    0.0000 C   0  0  0  0  0  0  0  0  0  0  0  0
   10.1724    3.2704    0.0000 F   0  0  0  0  0  0  0  0  0  0  0  0
   11.4099    2.5559    0.0000 C   0  0  0  0  0  0  0  0  0  0  0  0
   11.8224    1.8414    0.0000 C   0  0  0  0  0  0  0  0  0  0  0  0
   11.4099    1.1270    0.0000 C   0  0  0  0  0  0  0  0  0  0  0  0
   11.8224    0.4125    0.0000 Cl  0  0  0  0  0  0  0  0  0  0  0  0
   10.5849    1.1270    0.0000 C   0  0  0  0  0  0  0  0  0  0  0  0
   10.1724    0.4125    0.0000 F   0  0  0  0  0  0  0  0  0  0  0  0
    8.9349    1.1270    0.0000 C   0  0  0  0  0  0  0  0  0  0  0  0
    8.1099    1.1270    0.0000 C   0  0  0  0  0  0  0  0  0  0  0  0
    7.6974    0.4125    0.0000 O   0  0  0  0  0  0  0  0  0  0  0  0
    6.4599    1.1270    0.0000 C   0  0  0  0  0  0  0  0  0  0  0  0
    5.6349    1.1270    0.0000 C   0  0  0  0  0  0  0  0  0  0  0  0
    5.2224    0.4125    0.0000 C   0  0  0  0  0  0  0  0  0  0  0  0
    5.6349   -0.3020    0.0000 C   0  0  0  0  0  0  0  0  0  0  0  0
    6.4599   -0.3020    0.0000 C   0  0  0  0  0  0  0  0  0  0  0  0
    6.8724    0.4125    0.0000 N   0  0  0  0  0  0  0  0  0  0  0  0
    4.3974    0.4125    0.0000 C   0  0  0  0  0  0  0  0  0  0  0  0
    3.9849   -0.3020    0.0000 C   0  0  0  0  0  0  0  0  0  0  0  0
    3.1599   -0.3020    0.0000 C   0  0  0  0  0  0  0  0  0  0  0  0
    2.7474    0.4125    0.0000 C   0  0  0  0  0  0  0  0  0  0  0  0
    3.1599    1.1270    0.0000 C   0  0  0  0  0  0  0  0  0  0  0  0
    3.9849    1.1270    0.0000 C   0  0  0  0  0  0  0  0  0  0  0  0
    4.3974    1.8414    0.0000 N   0  0  0  0  0  0  0  0  0  0  0  0
    3.9849    2.5559    0.0000 C   0  0  0  0  0  0  0  0  0  0  0  0
    3.1599    2.5559    0.0000 O   0  0  0  0  0  0  0  0  0  0  0  0
  1  2  1  0  0  0  0
  2  3  1  0  0  0  0
  4  2  1  6  0  0  0
  4  5  1  0  0  0  0
  5  6  1  0  0  0  0
  6  7  1  0  0  0  0
  7  8  1  0  0  0  0
  8  9  1  6  0  0  0
  9 10  1  0  0  0  0
 10 11  1  0  0  0  0
 11 12  1  0  0  0  0
 12 13  1  0  0  0  0
 13 14  4  0  0  0  0
 14 15  1  0  0  0  0
 14 16  4  0  0  0  0
 16 17  4  0  0  0  0
 17 18  4  0  0  0  0
 18 19  1  0  0  0  0
 18 20  4  0  0  0  0
 13 20  4  0  0  0  0
 20 21  1  0  0  0  0
 12 22  2  0  0  0  0
 22 23  1  0  0  0  0
  9 23  1  0  0  0  0
 23 24  2  0  0  0  0
  8 25  1  0  0  0  0
 25 26  4  0  0  0  0
 26 27  4  0  0  0  0
 27 28  4  0  0  0  0
 28 29  4  0  0  0  0
 29 30  4  0  0  0  0
 25 30  4  0  0  0  0
 27 31  1  0  0  0  0
 31 32  4  0  0  0  0
 32 33  4  0  0  0  0
 33 34  4  0  0  0  0
 34 35  4  0  0  0  0
 35 36  4  0  0  0  0
 31 36  4  0  0  0  0
 36 37  1  0  0  0  0
 37 38  1  0  0  0  0
  4 38  1  0  0  0  0
 38 39  2  0  0  0  0
M  END
>  <CdId>
358620

>  <Mol Weight>
550.039

>  <Formula>
C31H30ClF2N3O2

>  <cmpd_chemblid>
CHEMBL3951440

>  <std_type>
Ki

>  <std_value>
46.53

>  <std_unit>
nM

>  <target_id>
CHEMBL2016

>  <target_name>
Coagulation factor IX

>  <organism>
Homo sapiens

>  <target_type>
SINGLE PROTEIN

$$$$

  Mrv0541 08052111042D          

 42 46  0  0  1  0            999 V2000
    8.6329   -2.2539    0.0000 C   0  0  0  0  0  0  0  0  0  0  0  0
    8.2204   -1.5395    0.0000 O   0  0  0  0  0  0  0  0  0  0  0  0
    7.3954   -1.5395    0.0000 C   0  0  0  0  0  0  0  0  0  0  0  0
    6.9829   -2.2539    0.0000 O   0  0  0  0  0  0  0  0  0  0  0  0
    6.9829   -0.8250    0.0000 N   0  0  0  0  0  0  0  0  0  0  0  0
    6.1579   -0.8250    0.0000 C   0  0  0  0  0  0  0  0  0  0  0  0
    5.7454   -0.1105    0.0000 C   0  0  0  0  0  0  0  0  0  0  0  0
    4.9204   -0.1105    0.0000 C   0  0  0  0  0  0  0  0  0  0  0  0
    4.5079   -0.8250    0.0000 C   0  0  0  0  0  0  0  0  0  0  0  0
    4.9204   -1.5395    0.0000 C   0  0  0  0  0  0  0  0  0  0  0  0
    5.7454   -1.5395    0.0000 C   0  0  0  0  0  0  0  0  0  0  0  0
    4.5079   -2.2539    0.0000 N   0  0  0  0  0  0  0  0  0  0  0  0
    4.9204   -2.9684    0.0000 C   0  0  0  0  0  0  0  0  0  0  0  0
    5.7454   -2.9684    0.0000 O   0  0  0  0  0  0  0  0  0  0  0  0
    4.5079   -3.6829    0.0000 C   0  0  2  0  0  0  0  0  0  0  0  0
    4.9204   -4.3974    0.0000 C   0  0  0  0  0  0  0  0  0  0  0  0
    3.6829   -3.6829    0.0000 C   0  0  0  0  0  0  0  0  0  0  0  0
    3.2704   -2.9684    0.0000 C   0  0  0  0  0  0  0  0  0  0  0  0
    2.4454   -2.9684    0.0000 C   0  0  0  0  0  0  0  0  0  0  0  0
    2.0329   -2.2539    0.0000 C   0  0  2  0  0  0  0  0  0  0  0  0
    1.2079   -2.2539    0.0000 N   0  0  0  0  0  0  0  0  0  0  0  0
    0.7954   -2.9684    0.0000 C   0  0  0  0  0  0  0  0  0  0  0  0
   -0.0296   -2.9684    0.0000 C   0  0  0  0  0  0  0  0  0  0  0  0
   -0.4421   -2.2539    0.0000 C   0  0  0  0  0  0  0  0  0  0  0  0
   -1.2671   -2.2539    0.0000 C   0  0  0  0  0  0  0  0  0  0  0  0
   -1.6796   -2.9684    0.0000 C   0  0  0  0  0  0  0  0  0  0  0  0
   -1.2671   -3.6829    0.0000 F   0  0  0  0  0  0  0  0  0  0  0  0
   -2.5046   -2.9684    0.0000 C   0  0  0  0  0  0  0  0  0  0  0  0
   -2.9171   -2.2539    0.0000 C   0  0  0  0  0  0  0  0  0  0  0  0
   -2.5046   -1.5395    0.0000 C   0  0  0  0  0  0  0  0  0  0  0  0
   -2.9171   -0.8250    0.0000 Br  0  0  0  0  0  0  0  0  0  0  0  0
   -1.6796   -1.5395    0.0000 C   0  0  0  0  0  0  0  0  0  0  0  0
   -1.2671   -0.8250    0.0000 F   0  0  0  0  0  0  0  0  0  0  0  0
   -0.0296   -1.5395    0.0000 C   0  0  0  0  0  0  0  0  0  0  0  0
    0.7954   -1.5395    0.0000 C   0  0  0  0  0  0  0  0  0  0  0  0
    1.2079   -0.8250    0.0000 O   0  0  0  0  0  0  0  0  0  0  0  0
    2.4454   -1.5395    0.0000 C   0  0  0  0  0  0  0  0  0  0  0  0
    3.2704   -1.5395    0.0000 C   0  0  0  0  0  0  0  0  0  0  0  0
    3.6829   -0.8250    0.0000 C   0  0  0  0  0  0  0  0  0  0  0  0
    3.2704   -0.1105    0.0000 C   0  0  0  0  0  0  0  0  0  0  0  0
    2.4454   -0.1105    0.0000 C   0  0  0  0  0  0  0  0  0  0  0  0
    2.0329   -0.8250    0.0000 N   0  0  0  0  0  0  0  0  0  0  0  0
  1  2  1  0  0  0  0
  2  3  1  0  0  0  0
  3  4  2  0  0  0  0
  3  5  1  0  0  0  0
  5  6  1  0  0  0  0
  6  7  4  0  0  0  0
  7  8  4  0  0  0  0
  8  9  4  0  0  0  0
  9 10  4  0  0  0  0
 10 11  4  0  0  0  0
  6 11  4  0  0  0  0
 10 12  1  0  0  0  0
 12 13  1  0  0  0  0
 13 14  2  0  0  0  0
 13 15  1  0  0  0  0
 15 16  1  6  0  0  0
 15 17  1  0  0  0  0
 17 18  1  0  0  0  0
 18 19  1  0  0  0  0
 19 20  1  0  0  0  0
 20 21  1  6  0  0  0
 21 22  1  0  0  0  0
 22 23  1  0  0  0  0
 23 24  1  0  0  0  0
 24 25  1  0  0  0  0
 25 26  4  0  0  0  0
 26 27  1  0  0  0  0
 26 28  4  0  0  0  0
 28 29  4  0  0  0  0
 29 30  4  0  0  0  0
 30 31  1  0  0  0  0
 30 32  4  0  0  0  0
 25 32  4  0  0  0  0
 32 33  1  0  0  0  0
 24 34  2  0  0  0  0
 34 35  1  0  0  0  0
 21 35  1  0  0  0  0
 35 36  2  0  0  0  0
 20 37  1  0  0  0  0
 37 38  4  0  0  0  0
 38 39  4  0  0  0  0
  9 39  1  0  0  0  0
 39 40  4  0  0  0  0
 40 41  4  0  0  0  0
 41 42  4  0  0  0  0
 37 42  4  0  0  0  0
M  END
>  <CdId>
358621

>  <Mol Weight>
639.487

>  <Formula>
C31H29BrF2N4O4

>  <cmpd_chemblid>
CHEMBL4112357

>  <std_type>
Ki

>  <std_value>
0.27

>  <std_unit>
nM

>  <target_id>
CHEMBL2016

>  <target_name>
Coagulation factor IX

>  <organism>
Homo sapiens

>  <target_type>
SINGLE PROTEIN

$$$$

  Mrv0541 08052111042D          

 60 65  0  0  1  0            999 V2000
    6.9829    3.4618    0.0000 C   0  0  0  0  0  0  0  0  0  0  0  0
    7.3954    2.7474    0.0000 O   0  0  0  0  0  0  0  0  0  0  0  0
    6.9829    2.0329    0.0000 C   0  0  0  0  0  0  0  0  0  0  0  0
    6.1579    2.0329    0.0000 O   0  0  0  0  0  0  0  0  0  0  0  0
    7.3954    1.3184    0.0000 C   0  0  1  0  0  0  0  0  0  0  0  0
    6.9829    0.6039    0.0000 O   0  0  0  0  0  0  0  0  0  0  0  0
    7.3954   -0.1105    0.0000 C   0  0  0  0  0  0  0  0  0  0  0  0
    6.9829   -0.8250    0.0000 N   0  0  0  0  0  0  0  0  0  0  0  0
    6.1579   -0.8250    0.0000 C   0  0  0  0  0  0  0  0  0  0  0  0
    5.7454   -0.1105    0.0000 C   0  0  0  0  0  0  0  0  0  0  0  0
    4.9204   -0.1105    0.0000 C   0  0  0  0  0  0  0  0  0  0  0  0
    4.5079   -0.8250    0.0000 C   0  0  0  0  0  0  0  0  0  0  0  0
    4.9204   -1.5395    0.0000 C   0  0  0  0  0  0  0  0  0  0  0  0
    5.7454   -1.5395    0.0000 C   0  0  0  0  0  0  0  0  0  0  0  0
    4.5079   -2.2539    0.0000 N   0  0  0  0  0  0  0  0  0  0  0  0
    4.9204   -2.9684    0.0000 C   0  0  0  0  0  0  0  0  0  0  0  0
    5.7454   -2.9684    0.0000 O   0  0  0  0  0  0  0  0  0  0  0  0
    4.5079   -3.6829    0.0000 C   0  0  2  0  0  0  0  0  0  0  0  0
    4.9204   -4.3974    0.0000 C   0  0  0  0  0  0  0  0  0  0  0  0
    3.6829   -3.6829    0.0000 C   0  0  0  0  0  0  0  0  0  0  0  0
    3.2704   -2.9684    0.0000 C   0  0  0  0  0  0  0  0  0  0  0  0
    2.4454   -2.9684    0.0000 C   0  0  0  0  0  0  0  0  0  0  0  0
    2.0329   -2.2539    0.0000 C   0  0  2  0  0  0  0  0  0  0  0  0
    1.2079   -2.2539    0.0000 N   0  0  0  0  0  0  0  0  0  0  0  0
    0.7954   -2.9684    0.0000 C   0  0  0  0  0  0  0  0  0  0  0  0
   -0.0296   -2.9684    0.0000 C   0  0  0  0  0  0  0  0  0  0  0  0
   -0.4421   -2.2539    0.0000 C   0  0  0  0  0  0  0  0  0  0  0  0
   -1.2671   -2.2539    0.0000 C   0  0  0  0  0  0  0  0  0  0  0  0
   -1.6796   -2.9684    0.0000 C   0  0  0  0  0  0  0  0  0  0  0  0
   -1.2671   -3.6829    0.0000 F   0  0  0  0  0  0  0  0  0  0  0  0
   -2.5046   -2.9684    0.0000 C   0  0  0  0  0  0  0  0  0  0  0  0
   -2.9171   -2.2539    0.0000 C   0  0  0  0  0  0  0  0  0  0  0  0
   -2.5046   -1.5395    0.0000 C   0  0  0  0  0  0  0  0  0  0  0  0
   -2.9171   -0.8250    0.0000 Cl  0  0  0  0  0  0  0  0  0  0  0  0
   -1.6796   -1.5395    0.0000 C   0  0  0  0  0  0  0  0  0  0  0  0
   -1.2671   -0.8250    0.0000 F   0  0  0  0  0  0  0  0  0  0  0  0
   -0.0296   -1.5395    0.0000 C   0  0  0  0  0  0  0  0  0  0  0  0
    0.7954   -1.5395    0.0000 C   0  0  0  0  0  0  0  0  0  0  0  0
    1.2079   -0.8250    0.0000 O   0  0  0  0  0  0  0  0  0  0  0  0
    2.4454   -1.5395    0.0000 C   0  0  0  0  0  0  0  0  0  0  0  0
    3.2704   -1.5395    0.0000 C   0  0  0  0  0  0  0  0  0  0  0  0
    3.6829   -0.8250    0.0000 C   0  0  0  0  0  0  0  0  0  0  0  0
    3.2704   -0.1105    0.0000 C   0  0  0  0  0  0  0  0  0  0  0  0
    2.4454   -0.1105    0.0000 C   0  0  0  0  0  0  0  0  0  0  0  0
    2.0329   -0.8250    0.0000 N   0  0  0  0  0  0  0  0  0  0  0  0
    8.2204   -0.1105    0.0000 C   0  0  2  0  0  0  0  0  0  0  0  0
    8.6329   -0.8250    0.0000 O   0  0  0  0  0  0  0  0  0  0  0  0
    8.2204   -1.5395    0.0000 C   0  0  0  0  0  0  0  0  0  0  0  0
    7.3954   -1.5395    0.0000 C   0  0  0  0  0  0  0  0  0  0  0  0
    8.6329   -2.2539    0.0000 O   0  0  0  0  0  0  0  0  0  0  0  0
    8.6329    0.6039    0.0000 C   0  0  1  0  0  0  0  0  0  0  0  0
    9.4579    0.6039    0.0000 O   0  0  0  0  0  0  0  0  0  0  0  0
    9.8704   -0.1105    0.0000 C   0  0  0  0  0  0  0  0  0  0  0  0
    9.4579   -0.8250    0.0000 C   0  0  0  0  0  0  0  0  0  0  0  0
   10.6954   -0.1105    0.0000 O   0  0  0  0  0  0  0  0  0  0  0  0
    8.2204    1.3184    0.0000 C   0  0  2  0  0  0  0  0  0  0  0  0
    8.6329    2.0329    0.0000 O   0  0  0  0  0  0  0  0  0  0  0  0
    9.4579    2.0329    0.0000 C   0  0  0  0  0  0  0  0  0  0  0  0
    9.8704    1.3184    0.0000 C   0  0  0  0  0  0  0  0  0  0  0  0
    9.8704    2.7474    0.0000 O   0  0  0  0  0  0  0  0  0  0  0  0
  1  2  1  0  0  0  0
  2  3  1  0  0  0  0
  3  4  2  0  0  0  0
  5  3  1  6  0  0  0
  5  6  1  0  0  0  0
  6  7  1  0  0  0  0
  7  8  1  0  0  0  0
  8  9  1  0  0  0  0
  9 10  4  0  0  0  0
 10 11  4  0  0  0  0
 11 12  4  0  0  0  0
 12 13  4  0  0  0  0
 13 14  4  0  0  0  0
  9 14  4  0  0  0  0
 13 15  1  0  0  0  0
 15 16  1  0  0  0  0
 16 17  2  0  0  0  0
 16 18  1  0  0  0  0
 18 19  1  6  0  0  0
 18 20  1  0  0  0  0
 20 21  1  0  0  0  0
 21 22  1  0  0  0  0
 22 23  1  0  0  0  0
 23 24  1  6  0  0  0
 24 25  1  0  0  0  0
 25 26  1  0  0  0  0
 26 27  1  0  0  0  0
 27 28  1  0  0  0  0
 28 29  4  0  0  0  0
 29 30  1  0  0  0  0
 29 31  4  0  0  0  0
 31 32  4  0  0  0  0
 32 33  4  0  0  0  0
 33 34  1  0  0  0  0
 33 35  4  0  0  0  0
 28 35  4  0  0  0  0
 35 36  1  0  0  0  0
 27 37  2  0  0  0  0
 37 38  1  0  0  0  0
 24 38  1  0  0  0  0
 38 39  2  0  0  0  0
 23 40  1  0  0  0  0
 40 41  4  0  0  0  0
 41 42  4  0  0  0  0
 12 42  1  0  0  0  0
 42 43  4  0  0  0  0
 43 44  4  0  0  0  0
 44 45  4  0  0  0  0
 40 45  4  0  0  0  0
  7 46  1  0  0  0  0
 46 47  1  1  0  0  0
 47 48  1  0  0  0  0
 48 49  1  0  0  0  0
 48 50  2  0  0  0  0
 46 51  1  0  0  0  0
 51 52  1  6  0  0  0
 52 53  1  0  0  0  0
 53 54  1  0  0  0  0
 53 55  2  0  0  0  0
 51 56  1  0  0  0  0
  5 56  1  0  0  0  0
 56 57  1  1  0  0  0
 57 58  1  0  0  0  0
 58 59  1  0  0  0  0
 58 60  2  0  0  0  0
M  END
>  <CdId>
358622

>  <Mol Weight>
853.261

>  <Formula>
C42H43ClF2N4O11

>  <cmpd_chemblid>
CHEMBL4115364

>  <std_type>
Ki

>  <std_value>
33.56

>  <std_unit>
nM

>  <target_id>
CHEMBL2016

>  <target_name>
Coagulation factor IX

>  <organism>
Homo sapiens

>  <target_type>
SINGLE PROTEIN

$$$$

  Mrv0541 08052111042D          

 33 36  0  0  0  0            999 V2000
   -5.3649   -1.3480    0.0000 N   0  0  0  0  0  0  0  0  0  0  0  0
   -4.9524   -2.0625    0.0000 C   0  0  0  0  0  0  0  0  0  0  0  0
   -5.3649   -2.7770    0.0000 N   0  0  0  0  0  0  0  0  0  0  0  0
   -4.1274   -2.0625    0.0000 C   0  0  0  0  0  0  0  0  0  0  0  0
   -3.6425   -1.3951    0.0000 C   0  0  0  0  0  0  0  0  0  0  0  0
   -2.8579   -1.6500    0.0000 C   0  0  0  0  0  0  0  0  0  0  0  0
   -2.1434   -1.2375    0.0000 C   0  0  0  0  0  0  0  0  0  0  0  0
   -2.1434   -0.4125    0.0000 O   0  0  0  0  0  0  0  0  0  0  0  0
   -1.4289   -0.0000    0.0000 C   0  0  0  0  0  0  0  0  0  0  0  0
   -0.7145   -0.4125    0.0000 C   0  0  0  0  0  0  0  0  0  0  0  0
    0.0000   -0.0000    0.0000 O   0  0  0  0  0  0  0  0  0  0  0  0
    0.7145   -0.4125    0.0000 C   0  0  0  0  0  0  0  0  0  0  0  0
    0.7145   -1.2375    0.0000 O   0  0  0  0  0  0  0  0  0  0  0  0
    1.4289   -0.0000    0.0000 N   0  0  0  0  0  0  0  0  0  0  0  0
    2.1434   -0.4125    0.0000 C   0  0  0  0  0  0  0  0  0  0  0  0
    2.8579   -0.0000    0.0000 C   0  0  0  0  0  0  0  0  0  0  0  0
    3.5724   -0.4125    0.0000 C   0  0  0  0  0  0  0  0  0  0  0  0
    3.5724   -1.2375    0.0000 C   0  0  0  0  0  0  0  0  0  0  0  0
    2.8579   -1.6500    0.0000 C   0  0  0  0  0  0  0  0  0  0  0  0
    2.1434   -1.2375    0.0000 C   0  0  0  0  0  0  0  0  0  0  0  0
    1.4289   -1.6500    0.0000 C   0  0  0  0  0  0  0  0  0  0  0  0
    1.4289   -2.4750    0.0000 N   0  0  0  0  0  0  0  0  0  0  0  0
   -1.4289    0.8250    0.0000 C   0  0  0  0  0  0  0  0  0  0  0  0
   -2.1434    1.2375    0.0000 C   0  0  0  0  0  0  0  0  0  0  0  0
   -2.1434    2.0625    0.0000 C   0  0  0  0  0  0  0  0  0  0  0  0
   -1.4289    2.4750    0.0000 C   0  0  0  0  0  0  0  0  0  0  0  0
   -0.7145    2.0625    0.0000 C   0  0  0  0  0  0  0  0  0  0  0  0
   -0.7145    1.2375    0.0000 C   0  0  0  0  0  0  0  0  0  0  0  0
   -1.4289   -1.6500    0.0000 C   0  0  0  0  0  0  0  0  0  0  0  0
   -1.4289   -2.4750    0.0000 C   0  0  0  0  0  0  0  0  0  0  0  0
   -2.1434   -2.8875    0.0000 C   0  0  0  0  0  0  0  0  0  0  0  0
   -2.8579   -2.4750    0.0000 C   0  0  0  0  0  0  0  0  0  0  0  0
   -3.6425   -2.7299    0.0000 S   0  0  0  0  0  0  0  0  0  0  0  0
  1  2  2  0  0  0  0
  2  3  1  0  0  0  0
  2  4  1  0  0  0  0
  4  5  4  0  0  0  0
  5  6  4  0  0  0  0
  6  7  4  0  0  0  0
  7  8  1  0  0  0  0
  8  9  1  0  0  0  0
  9 10  1  0  0  0  0
 10 11  1  0  0  0  0
 11 12  1  0  0  0  0
 12 13  2  0  0  0  0
 12 14  1  0  0  0  0
 14 15  1  0  0  0  0
 15 16  4  0  0  0  0
 16 17  4  0  0  0  0
 17 18  4  0  0  0  0
 18 19  4  0  0  0  0
 19 20  4  0  0  0  0
 15 20  4  0  0  0  0
 20 21  1  0  0  0  0
 21 22  1  0  0  0  0
  9 23  1  0  0  0  0
 23 24  4  0  0  0  0
 24 25  4  0  0  0  0
 25 26  4  0  0  0  0
 26 27  4  0  0  0  0
 27 28  4  0  0  0  0
 23 28  4  0  0  0  0
  7 29  4  0  0  0  0
 29 30  4  0  0  0  0
 30 31  4  0  0  0  0
 31 32  4  0  0  0  0
  6 32  4  0  0  0  0
 32 33  4  0  0  0  0
  4 33  4  0  0  0  0
M  END
>  <CdId>
358623

>  <Mol Weight>
460.548

>  <Formula>
C25H24N4O3S

>  <cmpd_chemblid>
CHEMBL599394

>  <std_type>
Ki

>  <std_value>
4.0

>  <std_unit>
nM

>  <target_id>
CHEMBL2016

>  <target_name>
Coagulation factor IX

>  <organism>
Homo sapiens

>  <target_type>
SINGLE PROTEIN

$$$$

  Mrv0541 08052111042D          

 39 44  0  0  1  0            999 V2000
    4.7674    0.7556    0.0000 C   0  0  0  0  0  0  0  0  0  0  0  0
    3.9604    0.5840    0.0000 C   0  0  0  0  0  0  0  0  0  0  0  0
    3.7054   -0.2006    0.0000 C   0  0  0  0  0  0  0  0  0  0  0  0
    2.8985   -0.3721    0.0000 C   0  0  0  0  0  0  0  0  0  0  0  0
    2.3464    0.2410    0.0000 C   0  0  0  0  0  0  0  0  0  0  0  0
    2.6014    1.0256    0.0000 C   0  0  0  0  0  0  0  0  0  0  0  0
    3.4084    1.1971    0.0000 C   0  0  0  0  0  0  0  0  0  0  0  0
    1.9339    1.5105    0.0000 C   0  0  0  0  0  0  0  0  0  0  0  0
    1.9339    2.3355    0.0000 C   0  0  0  0  0  0  0  0  0  0  0  0
    1.2195    2.7480    0.0000 N   0  0  0  0  0  0  0  0  0  0  0  0
    2.6484    2.7480    0.0000 O   0  0  0  0  0  0  0  0  0  0  0  0
    1.2665    1.0256    0.0000 C   0  0  0  0  0  0  0  0  0  0  0  0
    1.5214    0.2410    0.0000 N   0  0  0  0  0  0  0  0  0  0  0  0
    0.9694   -0.3721    0.0000 C   0  0  0  0  0  0  0  0  0  0  0  0
    0.1624   -0.2006    0.0000 C   0  0  1  0  0  0  0  0  0  0  0  0
    0.1336   -1.0251    0.0000 N   0  0  0  0  0  0  0  0  0  0  0  0
    0.8333   -1.4623    0.0000 C   0  0  0  0  0  0  0  0  0  0  0  0
    1.5617   -1.0750    0.0000 O   0  0  0  0  0  0  0  0  0  0  0  0
    0.8045   -2.2868    0.0000 C   0  0  0  0  0  0  0  0  0  0  0  0
    1.5041   -2.7240    0.0000 C   0  0  0  0  0  0  0  0  0  0  0  0
    2.2326   -2.3366    0.0000 Cl  0  0  0  0  0  0  0  0  0  0  0  0
    1.4753   -3.5485    0.0000 C   0  0  0  0  0  0  0  0  0  0  0  0
    0.7469   -3.9358    0.0000 C   0  0  0  0  0  0  0  0  0  0  0  0
    0.7181   -4.7603    0.0000 N   0  0  0  0  0  0  0  0  0  0  0  0
    1.3682   -5.2682    0.0000 C   0  0  0  0  0  0  0  0  0  0  0  0
    1.0861   -6.0434    0.0000 N   0  0  0  0  0  0  0  0  0  0  0  0
    0.2616   -6.0146    0.0000 N   0  0  0  0  0  0  0  0  0  0  0  0
    0.0342   -5.2216    0.0000 C   0  0  0  0  0  0  0  0  0  0  0  0
    0.0473   -3.4986    0.0000 C   0  0  0  0  0  0  0  0  0  0  0  0
    0.0761   -2.6741    0.0000 C   0  0  0  0  0  0  0  0  0  0  0  0
   -0.6236   -2.2369    0.0000 Cl  0  0  0  0  0  0  0  0  0  0  0  0
   -0.6545   -0.3154    0.0000 C   0  0  0  0  0  0  0  0  0  0  0  0
   -0.9636   -1.0803    0.0000 C   0  0  0  0  0  0  0  0  0  0  0  0
   -1.7806   -1.1952    0.0000 C   0  0  0  0  0  0  0  0  0  0  0  0
   -2.2885   -0.5450    0.0000 C   0  0  0  0  0  0  0  0  0  0  0  0
   -1.9794    0.2199    0.0000 C   0  0  0  0  0  0  0  0  0  0  0  0
   -1.1625    0.3347    0.0000 C   0  0  0  0  0  0  0  0  0  0  0  0
   -0.0925    0.5840    0.0000 C   0  0  0  0  0  0  0  0  0  0  0  0
    0.4595    1.1971    0.0000 C   0  0  0  0  0  0  0  0  0  0  0  0
  1  2  1  0  0  0  0
  2  3  4  0  0  0  0
  3  4  4  0  0  0  0
  4  5  4  0  0  0  0
  5  6  4  0  0  0  0
  6  7  4  0  0  0  0
  2  7  4  0  0  0  0
  6  8  4  0  0  0  0
  8  9  1  0  0  0  0
  9 10  1  0  0  0  0
  9 11  2  0  0  0  0
  8 12  4  0  0  0  0
 12 13  4  0  0  0  0
  5 13  4  0  0  0  0
 13 14  1  0  0  0  0
 14 15  1  0  0  0  0
 15 16  1  6  0  0  0
 16 17  1  0  0  0  0
 17 18  2  0  0  0  0
 17 19  1  0  0  0  0
 19 20  4  0  0  0  0
 20 21  1  0  0  0  0
 20 22  4  0  0  0  0
 22 23  4  0  0  0  0
 23 24  1  0  0  0  0
 24 25  4  0  0  0  0
 25 26  4  0  0  0  0
 26 27  4  0  0  0  0
 27 28  4  0  0  0  0
 24 28  4  0  0  0  0
 23 29  4  0  0  0  0
 29 30  4  0  0  0  0
 19 30  4  0  0  0  0
 30 31  1  0  0  0  0
 15 32  1  1  0  0  0
 32 33  4  0  0  0  0
 33 34  4  0  0  0  0
 34 35  4  0  0  0  0
 35 36  4  0  0  0  0
 36 37  4  0  0  0  0
 32 37  4  0  0  0  0
 15 38  1  0  0  0  0
 38 39  1  0  0  0  0
 12 39  1  0  0  0  0
M  END
>  <CdId>
358624

>  <Mol Weight>
559.446

>  <Formula>
C29H24Cl2N6O2

>  <cmpd_chemblid>
CHEMBL3628961

>  <std_type>
Ki

>  <std_value>
1.2

>  <std_unit>
nM

>  <target_id>
CHEMBL2016

>  <target_name>
Coagulation factor IX

>  <organism>
Homo sapiens

>  <target_type>
SINGLE PROTEIN

$$$$

  Mrv0541 08052111042D          

 37 41  0  0  1  0            999 V2000
    5.3127    7.9974    0.0000 C   0  0  0  0  0  0  0  0  0  0  0  0
    5.7977    7.3300    0.0000 C   0  0  0  0  0  0  0  0  0  0  0  0
    6.6227    7.3300    0.0000 N   0  0  0  0  0  0  0  0  0  0  0  0
    6.8776    6.5454    0.0000 C   0  0  0  0  0  0  0  0  0  0  0  0
    6.2102    6.0604    0.0000 N   0  0  0  0  0  0  0  0  0  0  0  0
    6.2102    5.2354    0.0000 C   0  0  0  0  0  0  0  0  0  0  0  0
    6.9246    4.8229    0.0000 C   0  0  0  0  0  0  0  0  0  0  0  0
    6.9246    3.9979    0.0000 C   0  0  0  0  0  0  0  0  0  0  0  0
    7.6391    3.5854    0.0000 Cl  0  0  0  0  0  0  0  0  0  0  0  0
    6.2102    3.5854    0.0000 C   0  0  0  0  0  0  0  0  0  0  0  0
    6.2102    2.7604    0.0000 C   0  0  0  0  0  0  0  0  0  0  0  0
    6.9246    2.3479    0.0000 O   0  0  0  0  0  0  0  0  0  0  0  0
    5.4957    2.3479    0.0000 N   0  0  0  0  0  0  0  0  0  0  0  0
    4.7812    2.7604    0.0000 C   0  0  0  0  0  0  0  0  0  0  0  0
    4.0668    2.3479    0.0000 C   0  0  1  0  0  0  0  0  0  0  0  0
    3.6543    3.0624    0.0000 O   0  0  0  0  0  0  0  0  0  0  0  0
    4.4793    1.6335    0.0000 C   0  0  0  0  0  0  0  0  0  0  0  0
    5.3043    1.6335    0.0000 C   0  0  0  0  0  0  0  0  0  0  0  0
    5.7168    0.9190    0.0000 C   0  0  0  0  0  0  0  0  0  0  0  0
    5.3043    0.2045    0.0000 C   0  0  0  0  0  0  0  0  0  0  0  0
    4.4793    0.2045    0.0000 C   0  0  0  0  0  0  0  0  0  0  0  0
    4.0668   -0.5099    0.0000 F   0  0  0  0  0  0  0  0  0  0  0  0
    4.0668    0.9190    0.0000 C   0  0  0  0  0  0  0  0  0  0  0  0
    3.3523    1.9354    0.0000 C   0  0  0  0  0  0  0  0  0  0  0  0
    3.3523    1.1104    0.0000 C   0  0  0  0  0  0  0  0  0  0  0  0
    2.6378    0.6979    0.0000 C   0  0  0  0  0  0  0  0  0  0  0  0
    1.9233    1.1104    0.0000 C   0  0  0  0  0  0  0  0  0  0  0  0
    1.1387    0.8555    0.0000 N   0  0  0  0  0  0  0  0  0  0  0  0
    0.6538    1.5229    0.0000 C   0  0  0  0  0  0  0  0  0  0  0  0
   -0.1712    1.5229    0.0000 C   0  0  0  0  0  0  0  0  0  0  0  0
    1.1387    2.1904    0.0000 N   0  0  0  0  0  0  0  0  0  0  0  0
    1.9233    1.9354    0.0000 C   0  0  0  0  0  0  0  0  0  0  0  0
    2.6378    2.3479    0.0000 C   0  0  0  0  0  0  0  0  0  0  0  0
    5.4957    3.9979    0.0000 C   0  0  0  0  0  0  0  0  0  0  0  0
    4.7812    3.5854    0.0000 Cl  0  0  0  0  0  0  0  0  0  0  0  0
    5.4957    4.8229    0.0000 C   0  0  0  0  0  0  0  0  0  0  0  0
    5.5427    6.5454    0.0000 N   0  0  0  0  0  0  0  0  0  0  0  0
  1  2  1  0  0  0  0
  2  3  4  0  0  0  0
  3  4  4  0  0  0  0
  4  5  4  0  0  0  0
  5  6  1  0  0  0  0
  6  7  4  0  0  0  0
  7  8  4  0  0  0  0
  8  9  1  0  0  0  0
  8 10  4  0  0  0  0
 10 11  1  0  0  0  0
 11 12  2  0  0  0  0
 11 13  1  0  0  0  0
 13 14  1  0  0  0  0
 14 15  1  0  0  0  0
 15 16  1  6  0  0  0
 15 17  1  0  0  0  0
 17 18  4  0  0  0  0
 18 19  4  0  0  0  0
 19 20  4  0  0  0  0
 20 21  4  0  0  0  0
 21 22  1  0  0  0  0
 21 23  4  0  0  0  0
 17 23  4  0  0  0  0
 15 24  1  1  0  0  0
 24 25  4  0  0  0  0
 25 26  4  0  0  0  0
 26 27  4  0  0  0  0
 27 28  4  0  0  0  0
 28 29  4  0  0  0  0
 29 30  1  0  0  0  0
 29 31  4  0  0  0  0
 31 32  4  0  0  0  0
 27 32  4  0  0  0  0
 32 33  4  0  0  0  0
 24 33  4  0  0  0  0
 10 34  4  0  0  0  0
 34 35  1  0  0  0  0
 34 36  4  0  0  0  0
  6 36  4  0  0  0  0
  5 37  4  0  0  0  0
  2 37  4  0  0  0  0
M  STY  1   1 DAT
M  SAL   1  1  28
M  SDT   1 MRV_IMPLICIT_H                                        
M  SDD   1     0.0000    0.0000    DR    ALL  0       0  
M  SED   1 IMPL_H1
M  END
>  <CdId>
358625

>  <Mol Weight>
539.388

>  <Formula>
C26H21Cl2FN6O2

>  <cmpd_chemblid>
CHEMBL3775906

>  <std_type>
Ki

>  <std_value>
31.95

>  <std_unit>
nM

>  <target_id>
CHEMBL2016

>  <target_name>
Coagulation factor IX

>  <organism>
Homo sapiens

>  <target_type>
SINGLE PROTEIN

$$$$

  Mrv0541 08052111042D          

 37 42  0  0  1  0            999 V2000
    4.7674    0.7556    0.0000 C   0  0  0  0  0  0  0  0  0  0  0  0
    3.9604    0.5840    0.0000 C   0  0  0  0  0  0  0  0  0  0  0  0
    3.7054   -0.2006    0.0000 C   0  0  0  0  0  0  0  0  0  0  0  0
    2.8985   -0.3721    0.0000 C   0  0  0  0  0  0  0  0  0  0  0  0
    2.3464    0.2410    0.0000 C   0  0  0  0  0  0  0  0  0  0  0  0
    2.6014    1.0256    0.0000 C   0  0  0  0  0  0  0  0  0  0  0  0
    3.4084    1.1971    0.0000 C   0  0  0  0  0  0  0  0  0  0  0  0
    1.9339    1.5105    0.0000 C   0  0  0  0  0  0  0  0  0  0  0  0
    1.9339    2.3355    0.0000 C   0  0  0  0  0  0  0  0  0  0  0  0
    1.2665    1.0256    0.0000 C   0  0  0  0  0  0  0  0  0  0  0  0
    1.5214    0.2410    0.0000 N   0  0  0  0  0  0  0  0  0  0  0  0
    0.9694   -0.3721    0.0000 C   0  0  0  0  0  0  0  0  0  0  0  0
    0.1624   -0.2006    0.0000 C   0  0  1  0  0  0  0  0  0  0  0  0
    0.1336   -1.0251    0.0000 N   0  0  0  0  0  0  0  0  0  0  0  0
    0.8333   -1.4623    0.0000 C   0  0  0  0  0  0  0  0  0  0  0  0
    1.5617   -1.0750    0.0000 O   0  0  0  0  0  0  0  0  0  0  0  0
    0.8045   -2.2868    0.0000 C   0  0  0  0  0  0  0  0  0  0  0  0
    1.5041   -2.7240    0.0000 C   0  0  0  0  0  0  0  0  0  0  0  0
    2.2326   -2.3366    0.0000 Cl  0  0  0  0  0  0  0  0  0  0  0  0
    1.4753   -3.5485    0.0000 C   0  0  0  0  0  0  0  0  0  0  0  0
    0.7469   -3.9358    0.0000 C   0  0  0  0  0  0  0  0  0  0  0  0
    0.7181   -4.7603    0.0000 N   0  0  0  0  0  0  0  0  0  0  0  0
    1.3682   -5.2682    0.0000 C   0  0  0  0  0  0  0  0  0  0  0  0
    1.0861   -6.0434    0.0000 N   0  0  0  0  0  0  0  0  0  0  0  0
    0.2616   -6.0146    0.0000 N   0  0  0  0  0  0  0  0  0  0  0  0
    0.0342   -5.2216    0.0000 C   0  0  0  0  0  0  0  0  0  0  0  0
    0.0473   -3.4986    0.0000 C   0  0  0  0  0  0  0  0  0  0  0  0
    0.0761   -2.6741    0.0000 C   0  0  0  0  0  0  0  0  0  0  0  0
   -0.6236   -2.2369    0.0000 Cl  0  0  0  0  0  0  0  0  0  0  0  0
   -0.6545   -0.3154    0.0000 C   0  0  0  0  0  0  0  0  0  0  0  0
   -0.9636   -1.0803    0.0000 C   0  0  0  0  0  0  0  0  0  0  0  0
   -1.7806   -1.1952    0.0000 C   0  0  0  0  0  0  0  0  0  0  0  0
   -2.2885   -0.5450    0.0000 C   0  0  0  0  0  0  0  0  0  0  0  0
   -1.9794    0.2199    0.0000 C   0  0  0  0  0  0  0  0  0  0  0  0
   -1.1625    0.3347    0.0000 C   0  0  0  0  0  0  0  0  0  0  0  0
   -0.0925    0.5840    0.0000 C   0  0  0  0  0  0  0  0  0  0  0  0
    0.4595    1.1971    0.0000 C   0  0  0  0  0  0  0  0  0  0  0  0
  1  2  1  0  0  0  0
  2  3  4  0  0  0  0
  3  4  4  0  0  0  0
  4  5  4  0  0  0  0
  5  6  4  0  0  0  0
  6  7  4  0  0  0  0
  2  7  4  0  0  0  0
  6  8  4  0  0  0  0
  8  9  1  0  0  0  0
  8 10  4  0  0  0  0
 10 11  4  0  0  0  0
  5 11  4  0  0  0  0
 11 12  1  0  0  0  0
 12 13  1  0  0  0  0
 13 14  1  6  0  0  0
 14 15  1  0  0  0  0
 15 16  2  0  0  0  0
 15 17  1  0  0  0  0
 17 18  4  0  0  0  0
 18 19  1  0  0  0  0
 18 20  4  0  0  0  0
 20 21  4  0  0  0  0
 21 22  1  0  0  0  0
 22 23  4  0  0  0  0
 23 24  4  0  0  0  0
 24 25  4  0  0  0  0
 25 26  4  0  0  0  0
 22 26  4  0  0  0  0
 21 27  4  0  0  0  0
 27 28  4  0  0  0  0
 17 28  4  0  0  0  0
 28 29  1  0  0  0  0
 13 30  1  1  0  0  0
 30 31  4  0  0  0  0
 31 32  4  0  0  0  0
 32 33  4  0  0  0  0
 33 34  4  0  0  0  0
 34 35  4  0  0  0  0
 30 35  4  0  0  0  0
 13 36  1  0  0  0  0
 36 37  1  0  0  0  0
 10 37  1  0  0  0  0
M  END
>  <CdId>
358627

>  <Mol Weight>
530.448

>  <Formula>
C29H25Cl2N5O

>  <cmpd_chemblid>
CHEMBL3628957

>  <std_type>
Ki

>  <std_value>
6.3

>  <std_unit>
nM

>  <target_id>
CHEMBL2016

>  <target_name>
Coagulation factor IX

>  <organism>
Homo sapiens

>  <target_type>
SINGLE PROTEIN

$$$$

  Mrv0541 08052111042D          

 38 43  0  0  0  0            999 V2000
    4.2010   -5.1401    0.0000 N   0  0  0  0  0  0  0  0  0  0  0  0
    3.3760   -5.1401    0.0000 C   0  0  0  0  0  0  0  0  0  0  0  0
    2.9635   -4.4256    0.0000 N   0  0  0  0  0  0  0  0  0  0  0  0
    2.9635   -5.8546    0.0000 C   0  0  0  0  0  0  0  0  0  0  0  0
    3.3760   -6.5690    0.0000 C   0  0  0  0  0  0  0  0  0  0  0  0
    2.9635   -7.2835    0.0000 C   0  0  0  0  0  0  0  0  0  0  0  0
    2.1385   -7.2835    0.0000 C   0  0  0  0  0  0  0  0  0  0  0  0
    1.7260   -6.5690    0.0000 C   0  0  0  0  0  0  0  0  0  0  0  0
    0.9010   -6.5690    0.0000 N   0  0  0  0  0  0  0  0  0  0  0  0
    0.4161   -7.2365    0.0000 N   0  0  0  0  0  0  0  0  0  0  0  0
   -0.3686   -6.9815    0.0000 C   0  0  0  0  0  0  0  0  0  0  0  0
   -1.0360   -7.4664    0.0000 C   0  0  0  0  0  0  0  0  0  0  0  0
   -1.7897   -7.1309    0.0000 N   0  0  0  0  0  0  0  0  0  0  0  0
   -2.5041   -7.5434    0.0000 C   0  0  0  0  0  0  0  0  0  0  0  0
   -3.1172   -6.9914    0.0000 C   0  0  0  0  0  0  0  0  0  0  0  0
   -2.7817   -6.2377    0.0000 N   0  0  0  0  0  0  0  0  0  0  0  0
   -1.9612   -6.3239    0.0000 C   0  0  0  0  0  0  0  0  0  0  0  0
   -0.3686   -6.1565    0.0000 C   0  0  0  0  0  0  0  0  0  0  0  0
    0.4161   -5.9016    0.0000 C   0  0  0  0  0  0  0  0  0  0  0  0
    0.6710   -5.1170    0.0000 C   0  0  0  0  0  0  0  0  0  0  0  0
    1.4780   -4.9454    0.0000 O   0  0  0  0  0  0  0  0  0  0  0  0
    0.1190   -4.5039    0.0000 N   0  0  0  0  0  0  0  0  0  0  0  0
    0.3739   -3.7192    0.0000 C   0  0  0  0  0  0  0  0  0  0  0  0
   -0.1781   -3.1062    0.0000 C   0  0  0  0  0  0  0  0  0  0  0  0
    0.0768   -2.3215    0.0000 C   0  0  0  0  0  0  0  0  0  0  0  0
    0.8838   -2.1500    0.0000 C   0  0  0  0  0  0  0  0  0  0  0  0
    1.1387   -1.3654    0.0000 N   0  0  0  0  0  0  0  0  0  0  0  0
    0.6538   -0.6979    0.0000 C   0  0  0  0  0  0  0  0  0  0  0  0
    1.1387   -0.0305    0.0000 N   0  0  0  0  0  0  0  0  0  0  0  0
    1.9233   -0.2854    0.0000 C   0  0  0  0  0  0  0  0  0  0  0  0
    2.6378    0.1271    0.0000 C   0  0  0  0  0  0  0  0  0  0  0  0
    3.3523   -0.2854    0.0000 C   0  0  0  0  0  0  0  0  0  0  0  0
    3.3523   -1.1104    0.0000 C   0  0  0  0  0  0  0  0  0  0  0  0
    2.6378   -1.5229    0.0000 C   0  0  0  0  0  0  0  0  0  0  0  0
    1.9233   -1.1104    0.0000 C   0  0  0  0  0  0  0  0  0  0  0  0
    1.4358   -2.7631    0.0000 C   0  0  0  0  0  0  0  0  0  0  0  0
    1.1809   -3.5477    0.0000 C   0  0  0  0  0  0  0  0  0  0  0  0
    2.1385   -5.8546    0.0000 C   0  0  0  0  0  0  0  0  0  0  0  0
  1  2  2  0  0  0  0
  2  3  1  0  0  0  0
  2  4  1  0  0  0  0
  4  5  4  0  0  0  0
  5  6  4  0  0  0  0
  6  7  4  0  0  0  0
  7  8  4  0  0  0  0
  8  9  1  0  0  0  0
  9 10  4  0  0  0  0
 10 11  4  0  0  0  0
 11 12  1  0  0  0  0
 12 13  1  0  0  0  0
 13 14  4  0  0  0  0
 14 15  4  0  0  0  0
 15 16  4  0  0  0  0
 16 17  4  0  0  0  0
 13 17  4  0  0  0  0
 11 18  4  0  0  0  0
 18 19  4  0  0  0  0
  9 19  4  0  0  0  0
 19 20  1  0  0  0  0
 20 21  2  0  0  0  0
 20 22  1  0  0  0  0
 22 23  1  0  0  0  0
 23 24  4  0  0  0  0
 24 25  4  0  0  0  0
 25 26  4  0  0  0  0
 26 27  1  0  0  0  0
 27 28  4  0  0  0  0
 28 29  4  0  0  0  0
 29 30  4  0  0  0  0
 30 31  4  0  0  0  0
 31 32  4  0  0  0  0
 32 33  4  0  0  0  0
 33 34  4  0  0  0  0
 34 35  4  0  0  0  0
 30 35  4  0  0  0  0
 27 35  4  0  0  0  0
 26 36  4  0  0  0  0
 36 37  4  0  0  0  0
 23 37  4  0  0  0  0
  8 38  4  0  0  0  0
  4 38  4  0  0  0  0
M  END
>  <CdId>
358628

>  <Mol Weight>
501.5419

>  <Formula>
C28H23N9O

>  <cmpd_chemblid>
CHEMBL426071

>  <std_type>
Ki

>  <std_value>
120.0

>  <std_unit>
nM

>  <target_id>
CHEMBL2016

>  <target_name>
Coagulation factor IX

>  <organism>
Homo sapiens

>  <target_type>
SINGLE PROTEIN

$$$$

  Mrv0541 08052111042D          

 29 31  0  0  0  0            999 V2000
    5.0013    0.4125    0.0000 C   0  0  0  0  0  0  0  0  0  0  0  0
    5.0013   -0.4125    0.0000 C   0  0  0  0  0  0  0  0  0  0  0  0
    4.1763   -0.4125    0.0000 C   0  0  0  0  0  0  0  0  0  0  0  0
    5.8263   -0.4125    0.0000 C   0  0  0  0  0  0  0  0  0  0  0  0
    5.0013   -1.2375    0.0000 C   0  0  0  0  0  0  0  0  0  0  0  0
    5.7158   -1.6500    0.0000 C   0  0  0  0  0  0  0  0  0  0  0  0
    5.7158   -2.4750    0.0000 C   0  0  0  0  0  0  0  0  0  0  0  0
    5.0013   -2.8875    0.0000 C   0  0  0  0  0  0  0  0  0  0  0  0
    5.0013   -3.7125    0.0000 C   0  0  0  0  0  0  0  0  0  0  0  0
    5.7158   -4.1250    0.0000 C   0  0  0  0  0  0  0  0  0  0  0  0
    5.7158   -4.9500    0.0000 C   0  0  0  0  0  0  0  0  0  0  0  0
    5.0013   -5.3625    0.0000 C   0  0  0  0  0  0  0  0  0  0  0  0
    4.2868   -4.9500    0.0000 C   0  0  0  0  0  0  0  0  0  0  0  0
    3.5724   -5.3625    0.0000 C   0  0  0  0  0  0  0  0  0  0  0  0
    3.5724   -6.1875    0.0000 O   0  0  0  0  0  0  0  0  0  0  0  0
    2.8579   -4.9500    0.0000 C   0  0  0  0  0  0  0  0  0  0  0  0
    2.8579   -4.1250    0.0000 O   0  0  0  0  0  0  0  0  0  0  0  0
    2.1434   -5.3625    0.0000 N   0  0  0  0  0  0  0  0  0  0  0  0
    1.4289   -4.9500    0.0000 C   0  0  0  0  0  0  0  0  0  0  0  0
    0.7145   -5.3625    0.0000 C   0  0  0  0  0  0  0  0  0  0  0  0
   -0.0000   -4.9500    0.0000 C   0  0  0  0  0  0  0  0  0  0  0  0
   -0.0000   -4.1250    0.0000 C   0  0  0  0  0  0  0  0  0  0  0  0
   -0.7145   -3.7125    0.0000 C   0  0  0  0  0  0  0  0  0  0  0  0
   -1.4289   -4.1250    0.0000 N   0  0  0  0  0  0  0  0  0  0  0  0
    0.7145   -3.7125    0.0000 C   0  0  0  0  0  0  0  0  0  0  0  0
    1.4289   -4.1250    0.0000 C   0  0  0  0  0  0  0  0  0  0  0  0
    4.2868   -4.1250    0.0000 C   0  0  0  0  0  0  0  0  0  0  0  0
    4.2868   -2.4750    0.0000 C   0  0  0  0  0  0  0  0  0  0  0  0
    4.2868   -1.6500    0.0000 C   0  0  0  0  0  0  0  0  0  0  0  0
  1  2  1  0  0  0  0
  2  3  1  0  0  0  0
  2  4  1  0  0  0  0
  2  5  1  0  0  0  0
  5  6  4  0  0  0  0
  6  7  4  0  0  0  0
  7  8  4  0  0  0  0
  8  9  1  0  0  0  0
  9 10  4  0  0  0  0
 10 11  4  0  0  0  0
 11 12  4  0  0  0  0
 12 13  4  0  0  0  0
 13 14  1  0  0  0  0
 14 15  1  0  0  0  0
 14 16  1  0  0  0  0
 16 17  2  0  0  0  0
 16 18  1  0  0  0  0
 18 19  1  0  0  0  0
 19 20  4  0  0  0  0
 20 21  4  0  0  0  0
 21 22  4  0  0  0  0
 22 23  1  0  0  0  0
 23 24  1  0  0  0  0
 22 25  4  0  0  0  0
 25 26  4  0  0  0  0
 19 26  4  0  0  0  0
 13 27  4  0  0  0  0
  9 27  4  0  0  0  0
  8 28  4  0  0  0  0
 28 29  4  0  0  0  0
  5 29  4  0  0  0  0
M  END
>  <CdId>
358629

>  <Mol Weight>
388.502

>  <Formula>
C25H28N2O2

>  <cmpd_chemblid>
CHEMBL3975555

>  <std_type>
Ki

>  <std_value>
725.0

>  <std_unit>
nM

>  <target_id>
CHEMBL2016

>  <target_name>
Coagulation factor IX

>  <organism>
Homo sapiens

>  <target_type>
SINGLE PROTEIN

$$$$

  Mrv0541 08052111042D          

 41 45  0  0  1  0            999 V2000
    8.6329   -2.2539    0.0000 C   0  0  0  0  0  0  0  0  0  0  0  0
    8.2204   -1.5395    0.0000 O   0  0  0  0  0  0  0  0  0  0  0  0
    7.3954   -1.5395    0.0000 C   0  0  0  0  0  0  0  0  0  0  0  0
    6.9829   -2.2539    0.0000 O   0  0  0  0  0  0  0  0  0  0  0  0
    6.9829   -0.8250    0.0000 N   0  0  0  0  0  0  0  0  0  0  0  0
    6.1579   -0.8250    0.0000 C   0  0  0  0  0  0  0  0  0  0  0  0
    5.7454   -0.1105    0.0000 C   0  0  0  0  0  0  0  0  0  0  0  0
    4.9204   -0.1105    0.0000 C   0  0  0  0  0  0  0  0  0  0  0  0
    4.5079   -0.8250    0.0000 C   0  0  0  0  0  0  0  0  0  0  0  0
    4.9204   -1.5395    0.0000 C   0  0  0  0  0  0  0  0  0  0  0  0
    5.7454   -1.5395    0.0000 C   0  0  0  0  0  0  0  0  0  0  0  0
    4.5079   -2.2539    0.0000 N   0  0  0  0  0  0  0  0  0  0  0  0
    4.9204   -2.9684    0.0000 C   0  0  0  0  0  0  0  0  0  0  0  0
    5.7454   -2.9684    0.0000 O   0  0  0  0  0  0  0  0  0  0  0  0
    4.5079   -3.6829    0.0000 C   0  0  2  0  0  0  0  0  0  0  0  0
    4.9204   -4.3974    0.0000 C   0  0  0  0  0  0  0  0  0  0  0  0
    3.6829   -3.6829    0.0000 C   0  0  0  0  0  0  0  0  0  0  0  0
    3.2704   -2.9684    0.0000 C   0  0  0  0  0  0  0  0  0  0  0  0
    2.4454   -2.9684    0.0000 C   0  0  0  0  0  0  0  0  0  0  0  0
    2.0329   -2.2539    0.0000 C   0  0  2  0  0  0  0  0  0  0  0  0
    1.2079   -2.2539    0.0000 N   0  0  0  0  0  0  0  0  0  0  0  0
    0.7954   -2.9684    0.0000 C   0  0  0  0  0  0  0  0  0  0  0  0
   -0.0296   -2.9684    0.0000 C   0  0  0  0  0  0  0  0  0  0  0  0
   -0.4421   -2.2539    0.0000 C   0  0  0  0  0  0  0  0  0  0  0  0
   -1.2671   -2.2539    0.0000 C   0  0  0  0  0  0  0  0  0  0  0  0
   -1.6796   -2.9684    0.0000 C   0  0  0  0  0  0  0  0  0  0  0  0
   -2.5046   -2.9684    0.0000 C   0  0  0  0  0  0  0  0  0  0  0  0
   -2.9171   -2.2539    0.0000 C   0  0  0  0  0  0  0  0  0  0  0  0
   -3.7421   -2.2539    0.0000 O   0  0  0  0  0  0  0  0  0  0  0  0
   -4.1546   -2.9684    0.0000 C   0  0  0  0  0  0  0  0  0  0  0  0
   -2.5046   -1.5395    0.0000 C   0  0  0  0  0  0  0  0  0  0  0  0
   -1.6796   -1.5395    0.0000 C   0  0  0  0  0  0  0  0  0  0  0  0
   -0.0296   -1.5395    0.0000 C   0  0  0  0  0  0  0  0  0  0  0  0
    0.7954   -1.5395    0.0000 C   0  0  0  0  0  0  0  0  0  0  0  0
    1.2079   -0.8250    0.0000 O   0  0  0  0  0  0  0  0  0  0  0  0
    2.4454   -1.5395    0.0000 C   0  0  0  0  0  0  0  0  0  0  0  0
    3.2704   -1.5395    0.0000 C   0  0  0  0  0  0  0  0  0  0  0  0
    3.6829   -0.8250    0.0000 C   0  0  0  0  0  0  0  0  0  0  0  0
    3.2704   -0.1105    0.0000 C   0  0  0  0  0  0  0  0  0  0  0  0
    2.4454   -0.1105    0.0000 C   0  0  0  0  0  0  0  0  0  0  0  0
    2.0329   -0.8250    0.0000 N   0  0  0  0  0  0  0  0  0  0  0  0
  1  2  1  0  0  0  0
  2  3  1  0  0  0  0
  3  4  2  0  0  0  0
  3  5  1  0  0  0  0
  5  6  1  0  0  0  0
  6  7  4  0  0  0  0
  7  8  4  0  0  0  0
  8  9  4  0  0  0  0
  9 10  4  0  0  0  0
 10 11  4  0  0  0  0
  6 11  4  0  0  0  0
 10 12  1  0  0  0  0
 12 13  1  0  0  0  0
 13 14  2  0  0  0  0
 13 15  1  0  0  0  0
 15 16  1  6  0  0  0
 15 17  1  0  0  0  0
 17 18  1  0  0  0  0
 18 19  1  0  0  0  0
 19 20  1  0  0  0  0
 20 21  1  6  0  0  0
 21 22  1  0  0  0  0
 22 23  1  0  0  0  0
 23 24  1  0  0  0  0
 24 25  1  0  0  0  0
 25 26  4  0  0  0  0
 26 27  4  0  0  0  0
 27 28  4  0  0  0  0
 28 29  1  0  0  0  0
 29 30  1  0  0  0  0
 28 31  4  0  0  0  0
 31 32  4  0  0  0  0
 25 32  4  0  0  0  0
 24 33  2  0  0  0  0
 33 34  1  0  0  0  0
 21 34  1  0  0  0  0
 34 35  2  0  0  0  0
 20 36  1  0  0  0  0
 36 37  4  0  0  0  0
 37 38  4  0  0  0  0
  9 38  1  0  0  0  0
 38 39  4  0  0  0  0
 39 40  4  0  0  0  0
 40 41  4  0  0  0  0
 36 41  4  0  0  0  0
M  END
>  <CdId>
358630

>  <Mol Weight>
554.6362

>  <Formula>
C32H34N4O5

>  <cmpd_chemblid>
CHEMBL4107783

>  <std_type>
Ki

>  <std_value>
398.2

>  <std_unit>
nM

>  <target_id>
CHEMBL2016

>  <target_name>
Coagulation factor IX

>  <organism>
Homo sapiens

>  <target_type>
SINGLE PROTEIN

$$$$

  Mrv0541 08052111042D          

 41 45  0  0  1  0            999 V2000
    3.9849    3.9849    0.0000 C   0  0  0  0  0  0  0  0  0  0  0  0
    4.3974    3.2704    0.0000 C   0  0  2  0  0  0  0  0  0  0  0  0
    5.2224    3.2704    0.0000 C   0  0  0  0  0  0  0  0  0  0  0  0
    5.6349    2.5559    0.0000 C   0  0  0  0  0  0  0  0  0  0  0  0
    6.4599    2.5559    0.0000 C   0  0  0  0  0  0  0  0  0  0  0  0
    6.8724    1.8414    0.0000 C   0  0  2  0  0  0  0  0  0  0  0  0
    7.6974    1.8414    0.0000 N   0  0  0  0  0  0  0  0  0  0  0  0
    8.1099    2.5559    0.0000 C   0  0  0  0  0  0  0  0  0  0  0  0
    8.9349    2.5559    0.0000 C   0  0  0  0  0  0  0  0  0  0  0  0
    9.3474    1.8414    0.0000 C   0  0  0  0  0  0  0  0  0  0  0  0
   10.1724    1.8414    0.0000 C   0  0  0  0  0  0  0  0  0  0  0  0
   10.5849    2.5559    0.0000 C   0  0  0  0  0  0  0  0  0  0  0  0
   10.1724    3.2704    0.0000 C   0  0  0  0  0  0  0  0  0  0  0  0
    9.7599    3.9849    0.0000 N   0  0  0  0  0  0  0  0  0  0  0  0
   11.4099    2.5559    0.0000 C   0  0  0  0  0  0  0  0  0  0  0  0
   11.8224    1.8414    0.0000 C   0  0  0  0  0  0  0  0  0  0  0  0
   11.4099    1.1270    0.0000 C   0  0  0  0  0  0  0  0  0  0  0  0
   11.8224    0.4125    0.0000 C   0  0  0  0  0  0  0  0  0  0  0  0
   12.2349   -0.3020    0.0000 N   0  0  0  0  0  0  0  0  0  0  0  0
   10.5849    1.1270    0.0000 C   0  0  0  0  0  0  0  0  0  0  0  0
   10.1724    0.4125    0.0000 F   0  0  0  0  0  0  0  0  0  0  0  0
    8.9349    1.1270    0.0000 C   0  0  0  0  0  0  0  0  0  0  0  0
    8.1099    1.1270    0.0000 C   0  0  0  0  0  0  0  0  0  0  0  0
    7.6974    0.4125    0.0000 O   0  0  0  0  0  0  0  0  0  0  0  0
    6.4599    1.1270    0.0000 C   0  0  0  0  0  0  0  0  0  0  0  0
    5.6349    1.1270    0.0000 C   0  0  0  0  0  0  0  0  0  0  0  0
    5.2224    0.4125    0.0000 C   0  0  0  0  0  0  0  0  0  0  0  0
    5.6349   -0.3020    0.0000 C   0  0  0  0  0  0  0  0  0  0  0  0
    6.4599   -0.3020    0.0000 C   0  0  0  0  0  0  0  0  0  0  0  0
    6.8724    0.4125    0.0000 N   0  0  0  0  0  0  0  0  0  0  0  0
    4.3974    0.4125    0.0000 C   0  0  0  0  0  0  0  0  0  0  0  0
    3.9849   -0.3020    0.0000 C   0  0  0  0  0  0  0  0  0  0  0  0
    3.1599   -0.3020    0.0000 C   0  0  0  0  0  0  0  0  0  0  0  0
    2.7474   -1.0164    0.0000 F   0  0  0  0  0  0  0  0  0  0  0  0
    2.7474    0.4125    0.0000 C   0  0  0  0  0  0  0  0  0  0  0  0
    1.9224    0.4125    0.0000 F   0  0  0  0  0  0  0  0  0  0  0  0
    3.1599    1.1270    0.0000 C   0  0  0  0  0  0  0  0  0  0  0  0
    3.9849    1.1270    0.0000 C   0  0  0  0  0  0  0  0  0  0  0  0
    4.3974    1.8414    0.0000 N   0  0  0  0  0  0  0  0  0  0  0  0
    3.9849    2.5559    0.0000 C   0  0  0  0  0  0  0  0  0  0  0  0
    3.1599    2.5559    0.0000 O   0  0  0  0  0  0  0  0  0  0  0  0
  2  1  1  6  0  0  0
  2  3  1  0  0  0  0
  3  4  1  0  0  0  0
  4  5  1  0  0  0  0
  5  6  1  0  0  0  0
  6  7  1  6  0  0  0
  7  8  1  0  0  0  0
  8  9  1  0  0  0  0
  9 10  1  0  0  0  0
 10 11  1  0  0  0  0
 11 12  4  0  0  0  0
 12 13  1  0  0  0  0
 13 14  3  0  0  0  0
 12 15  4  0  0  0  0
 15 16  4  0  0  0  0
 16 17  4  0  0  0  0
 17 18  1  0  0  0  0
 18 19  3  0  0  0  0
 17 20  4  0  0  0  0
 11 20  4  0  0  0  0
 20 21  1  0  0  0  0
 10 22  2  0  0  0  0
 22 23  1  0  0  0  0
  7 23  1  0  0  0  0
 23 24  2  0  0  0  0
  6 25  1  0  0  0  0
 25 26  4  0  0  0  0
 26 27  4  0  0  0  0
 27 28  4  0  0  0  0
 28 29  4  0  0  0  0
 29 30  4  0  0  0  0
 25 30  4  0  0  0  0
 27 31  1  0  0  0  0
 31 32  4  0  0  0  0
 32 33  4  0  0  0  0
 33 34  1  0  0  0  0
 33 35  4  0  0  0  0
 35 36  1  0  0  0  0
 35 37  4  0  0  0  0
 37 38  4  0  0  0  0
 31 38  4  0  0  0  0
 38 39  1  0  0  0  0
 39 40  1  0  0  0  0
  2 40  1  0  0  0  0
 40 41  2  0  0  0  0
M  END
>  <CdId>
358631

>  <Mol Weight>
555.5498

>  <Formula>
C31H24F3N5O2

>  <cmpd_chemblid>
CHEMBL4110679

>  <std_type>
Ki

>  <std_value>
476.6

>  <std_unit>
nM

>  <target_id>
CHEMBL2016

>  <target_name>
Coagulation factor IX

>  <organism>
Homo sapiens

>  <target_type>
SINGLE PROTEIN

$$$$

  Mrv0541 08052111042D          

 39 43  0  0  1  0            999 V2000
    1.4289   -2.4750    0.0000 N   0  0  0  0  0  0  0  0  0  0  0  0
    1.4289   -1.6500    0.0000 C   0  0  0  0  0  0  0  0  0  0  0  0
    0.7145   -1.2375    0.0000 N   0  0  0  0  0  0  0  0  0  0  0  0
    0.7145   -0.4125    0.0000 C   0  0  0  0  0  0  0  0  0  0  0  0
    1.4289    0.0000    0.0000 C   0  0  0  0  0  0  0  0  0  0  0  0
    2.1434   -0.4125    0.0000 C   0  0  0  0  0  0  0  0  0  0  0  0
    2.8579    0.0000    0.0000 C   0  0  0  0  0  0  0  0  0  0  0  0
    3.5724   -0.4125    0.0000 C   0  0  0  0  0  0  0  0  0  0  0  0
    4.2868   -0.0000    0.0000 C   0  0  0  0  0  0  0  0  0  0  0  0
    4.2868    0.8250    0.0000 C   0  0  2  0  0  0  0  0  0  0  0  0
    3.5724    1.2375    0.0000 C   0  0  0  0  0  0  0  0  0  0  0  0
    2.8579    0.8250    0.0000 O   0  0  0  0  0  0  0  0  0  0  0  0
    3.5724    2.0625    0.0000 O   0  0  0  0  0  0  0  0  0  0  0  0
    5.0013    1.2375    0.0000 N   0  0  0  0  0  0  0  0  0  0  0  0
    5.0875    2.0580    0.0000 C   0  0  0  0  0  0  0  0  0  0  0  0
    5.8945    2.2295    0.0000 C   0  0  0  0  0  0  0  0  0  0  0  0
    6.3070    1.5150    0.0000 C   0  0  2  0  0  0  0  0  0  0  0  0
    7.1275    1.4288    0.0000 N   0  0  0  0  0  0  0  0  0  0  0  0
    7.6124    2.0962    0.0000 S   0  0  0  0  0  0  0  0  0  0  0  0
    8.2798    1.6113    0.0000 O   0  0  0  0  0  0  0  0  0  0  0  0
    6.9450    2.5812    0.0000 O   0  0  0  0  0  0  0  0  0  0  0  0
    8.0973    2.7637    0.0000 C   0  0  0  0  0  0  0  0  0  0  0  0
    7.8424    3.5483    0.0000 C   0  0  0  0  0  0  0  0  0  0  0  0
    8.5098    4.0332    0.0000 N   0  0  0  0  0  0  0  0  0  0  0  0
    9.1773    3.5483    0.0000 C   0  0  0  0  0  0  0  0  0  0  0  0
    9.9619    3.8032    0.0000 N   0  0  0  0  0  0  0  0  0  0  0  0
   10.2168    4.5879    0.0000 C   0  0  0  0  0  0  0  0  0  0  0  0
   11.0418    4.5879    0.0000 C   0  0  0  0  0  0  0  0  0  0  0  0
   11.2968    3.8032    0.0000 C   0  0  0  0  0  0  0  0  0  0  0  0
   12.0504    4.1388    0.0000 F   0  0  0  0  0  0  0  0  0  0  0  0
   11.7093    3.0888    0.0000 F   0  0  0  0  0  0  0  0  0  0  0  0
   10.6293    3.3183    0.0000 C   0  0  0  0  0  0  0  0  0  0  0  0
    8.9223    2.7637    0.0000 S   0  0  0  0  0  0  0  0  0  0  0  0
    5.7550    0.9019    0.0000 C   0  0  0  0  0  0  0  0  0  0  0  0
    5.9265    0.0950    0.0000 O   0  0  0  0  0  0  0  0  0  0  0  0
    3.5724   -1.2375    0.0000 C   0  0  0  0  0  0  0  0  0  0  0  0
    4.2868   -1.6500    0.0000 F   0  0  0  0  0  0  0  0  0  0  0  0
    2.8579   -1.6500    0.0000 C   0  0  0  0  0  0  0  0  0  0  0  0
    2.1434   -1.2375    0.0000 C   0  0  0  0  0  0  0  0  0  0  0  0
  1  2  1  0  0  0  0
  2  3  4  0  0  0  0
  3  4  4  0  0  0  0
  4  5  4  0  0  0  0
  5  6  4  0  0  0  0
  6  7  4  0  0  0  0
  7  8  4  0  0  0  0
  8  9  1  0  0  0  0
  9 10  1  0  0  0  0
 10 11  1  0  0  0  0
 11 12  2  0  0  0  0
 11 13  1  0  0  0  0
 10 14  1  6  0  0  0
 14 15  1  0  0  0  0
 15 16  1  0  0  0  0
 16 17  1  0  0  0  0
 17 18  1  6  0  0  0
 18 19  1  0  0  0  0
 19 20  2  0  0  0  0
 19 21  2  0  0  0  0
 19 22  1  0  0  0  0
 22 23  4  0  0  0  0
 23 24  4  0  0  0  0
 24 25  4  0  0  0  0
 25 26  1  0  0  0  0
 26 27  1  0  0  0  0
 27 28  1  0  0  0  0
 28 29  1  0  0  0  0
 29 30  1  0  0  0  0
 29 31  1  0  0  0  0
 29 32  1  0  0  0  0
 26 32  1  0  0  0  0
 25 33  4  0  0  0  0
 22 33  4  0  0  0  0
 17 34  1  0  0  0  0
 14 34  1  0  0  0  0
 34 35  2  0  0  0  0
  8 36  4  0  0  0  0
 36 37  1  0  0  0  0
 36 38  4  0  0  0  0
 38 39  4  0  0  0  0
  2 39  4  0  0  0  0
  6 39  4  0  0  0  0
M  END
>  <CdId>
358632

>  <Mol Weight>
584.591

>  <Formula>
C23H23F3N6O5S2

>  <cmpd_chemblid>
CHEMBL3897871

>  <std_type>
Ki

>  <std_value>
60.0

>  <std_unit>
nM

>  <target_id>
CHEMBL2016

>  <target_name>
Coagulation factor IX

>  <organism>
Homo sapiens

>  <target_type>
SINGLE PROTEIN

$$$$

  Mrv0541 08052111042D          

 38 43  0  0  1  0            999 V2000
    0.2308   -4.2422    0.0000 C   0  0  0  0  0  0  0  0  0  0  0  0
   -0.2771   -3.5921    0.0000 O   0  0  0  0  0  0  0  0  0  0  0  0
    0.0319   -2.8271    0.0000 C   0  0  0  0  0  0  0  0  0  0  0  0
   -0.4760   -2.1770    0.0000 C   0  0  0  0  0  0  0  0  0  0  0  0
   -0.1669   -1.4121    0.0000 C   0  0  0  0  0  0  0  0  0  0  0  0
    0.6500   -1.2973    0.0000 C   0  0  0  0  0  0  0  0  0  0  0  0
    1.1580   -1.9474    0.0000 C   0  0  0  0  0  0  0  0  0  0  0  0
    1.9749   -1.8326    0.0000 C   0  0  1  0  0  0  0  0  0  0  0  0
    1.9461   -2.6571    0.0000 N   0  0  0  0  0  0  0  0  0  0  0  0
    2.6458   -3.0942    0.0000 C   0  0  0  0  0  0  0  0  0  0  0  0
    3.3742   -2.7069    0.0000 O   0  0  0  0  0  0  0  0  0  0  0  0
    2.6170   -3.9187    0.0000 C   0  0  0  0  0  0  0  0  0  0  0  0
    3.3166   -4.3559    0.0000 C   0  0  0  0  0  0  0  0  0  0  0  0
    3.2878   -5.1804    0.0000 C   0  0  0  0  0  0  0  0  0  0  0  0
    2.5594   -5.5677    0.0000 C   0  0  0  0  0  0  0  0  0  0  0  0
    2.5306   -6.3922    0.0000 N   0  0  0  0  0  0  0  0  0  0  0  0
    3.1807   -6.9002    0.0000 C   0  0  0  0  0  0  0  0  0  0  0  0
    2.8985   -7.6754    0.0000 N   0  0  0  0  0  0  0  0  0  0  0  0
    2.0741   -7.6466    0.0000 C   0  0  0  0  0  0  0  0  0  0  0  0
    1.5661   -8.2967    0.0000 C   0  0  0  0  0  0  0  0  0  0  0  0
    1.8466   -6.8536    0.0000 N   0  0  0  0  0  0  0  0  0  0  0  0
    1.8598   -5.1306    0.0000 C   0  0  0  0  0  0  0  0  0  0  0  0
    1.8886   -4.3061    0.0000 C   0  0  0  0  0  0  0  0  0  0  0  0
    1.1889   -3.8689    0.0000 Cl  0  0  0  0  0  0  0  0  0  0  0  0
    1.7200   -1.0479    0.0000 C   0  0  0  0  0  0  0  0  0  0  0  0
    2.2720   -0.4349    0.0000 C   0  0  0  0  0  0  0  0  0  0  0  0
    3.0790   -0.6064    0.0000 C   0  0  0  0  0  0  0  0  0  0  0  0
    3.7464   -0.1215    0.0000 N   0  0  0  0  0  0  0  0  0  0  0  0
    4.4139   -0.6064    0.0000 N   0  0  0  0  0  0  0  0  0  0  0  0
    5.2208   -0.4349    0.0000 C   0  0  0  0  0  0  0  0  0  0  0  0
    5.7729   -1.0479    0.0000 C   0  0  0  0  0  0  0  0  0  0  0  0
    6.5798   -0.8764    0.0000 C   0  0  0  0  0  0  0  0  0  0  0  0
    5.5179   -1.8326    0.0000 C   0  0  0  0  0  0  0  0  0  0  0  0
    4.7110   -2.0041    0.0000 C   0  0  0  0  0  0  0  0  0  0  0  0
    4.1589   -1.3910    0.0000 C   0  0  0  0  0  0  0  0  0  0  0  0
    3.3339   -1.3910    0.0000 C   0  0  0  0  0  0  0  0  0  0  0  0
    2.7819   -2.0041    0.0000 C   0  0  0  0  0  0  0  0  0  0  0  0
    0.8489   -2.7123    0.0000 C   0  0  0  0  0  0  0  0  0  0  0  0
  1  2  1  0  0  0  0
  2  3  1  0  0  0  0
  3  4  4  0  0  0  0
  4  5  4  0  0  0  0
  5  6  4  0  0  0  0
  6  7  4  0  0  0  0
  8  7  1  1  0  0  0
  8  9  1  6  0  0  0
  9 10  1  0  0  0  0
 10 11  2  0  0  0  0
 10 12  1  0  0  0  0
 12 13  4  0  0  0  0
 13 14  4  0  0  0  0
 14 15  4  0  0  0  0
 15 16  1  0  0  0  0
 16 17  4  0  0  0  0
 17 18  4  0  0  0  0
 18 19  4  0  0  0  0
 19 20  1  0  0  0  0
 19 21  4  0  0  0  0
 16 21  4  0  0  0  0
 15 22  4  0  0  0  0
 22 23  4  0  0  0  0
 12 23  4  0  0  0  0
 23 24  1  0  0  0  0
  8 25  1  0  0  0  0
 25 26  1  0  0  0  0
 26 27  1  0  0  0  0
 27 28  4  0  0  0  0
 28 29  4  0  0  0  0
 29 30  4  0  0  0  0
 30 31  4  0  0  0  0
 31 32  1  0  0  0  0
 31 33  4  0  0  0  0
 33 34  4  0  0  0  0
 34 35  4  0  0  0  0
 29 35  4  0  0  0  0
 35 36  4  0  0  0  0
 27 36  4  0  0  0  0
 36 37  1  0  0  0  0
  8 37  1  0  0  0  0
  7 38  4  0  0  0  0
  3 38  4  0  0  0  0
M  END
>  <CdId>
358633

>  <Mol Weight>
527.017

>  <Formula>
C29H27ClN6O2

>  <cmpd_chemblid>
CHEMBL3628947

>  <std_type>
Ki

>  <std_value>
3.0

>  <std_unit>
nM

>  <target_id>
CHEMBL2016

>  <target_name>
Coagulation factor IX

>  <organism>
Homo sapiens

>  <target_type>
SINGLE PROTEIN

$$$$

  Mrv0541 08052111042D          

 36 40  0  0  1  0            999 V2000
    3.6017    3.9187    0.0000 C   0  0  0  0  0  0  0  0  0  0  0  0
    4.0363    3.2175    0.0000 C   0  0  2  0  0  0  0  0  0  0  0  0
    4.8609    3.2432    0.0000 C   0  0  0  0  0  0  0  0  0  0  0  0
    5.2955    2.5420    0.0000 C   0  0  0  0  0  0  0  0  0  0  0  0
    6.1201    2.5677    0.0000 C   0  0  0  0  0  0  0  0  0  0  0  0
    6.5547    1.8665    0.0000 C   0  0  2  0  0  0  0  0  0  0  0  0
    7.3793    1.8923    0.0000 N   0  0  0  0  0  0  0  0  0  0  0  0
    7.7693    2.6193    0.0000 C   0  0  0  0  0  0  0  0  0  0  0  0
    8.5939    2.6450    0.0000 C   0  0  0  0  0  0  0  0  0  0  0  0
    9.0285    1.9438    0.0000 C   0  0  0  0  0  0  0  0  0  0  0  0
    9.8531    1.9696    0.0000 C   0  0  0  0  0  0  0  0  0  0  0  0
   10.2431    2.6966    0.0000 C   0  0  0  0  0  0  0  0  0  0  0  0
    9.8085    3.3978    0.0000 F   0  0  0  0  0  0  0  0  0  0  0  0
   11.0677    2.7223    0.0000 C   0  0  0  0  0  0  0  0  0  0  0  0
   11.5023    2.0211    0.0000 C   0  0  0  0  0  0  0  0  0  0  0  0
   11.1123    1.2941    0.0000 C   0  0  0  0  0  0  0  0  0  0  0  0
   11.5469    0.5928    0.0000 Cl  0  0  0  0  0  0  0  0  0  0  0  0
   10.2877    1.2683    0.0000 C   0  0  0  0  0  0  0  0  0  0  0  0
    9.8977    0.5413    0.0000 F   0  0  0  0  0  0  0  0  0  0  0  0
    8.6385    1.2168    0.0000 C   0  0  0  0  0  0  0  0  0  0  0  0
    7.8139    1.1910    0.0000 C   0  0  0  0  0  0  0  0  0  0  0  0
    7.4239    0.4640    0.0000 O   0  0  0  0  0  0  0  0  0  0  0  0
    6.1647    1.1395    0.0000 C   0  0  0  0  0  0  0  0  0  0  0  0
    5.3401    1.1137    0.0000 C   0  0  0  0  0  0  0  0  0  0  0  0
    4.9501    0.3867    0.0000 C   0  0  0  0  0  0  0  0  0  0  0  0
    5.3847   -0.3145    0.0000 C   0  0  0  0  0  0  0  0  0  0  0  0
    6.2093   -0.2887    0.0000 C   0  0  0  0  0  0  0  0  0  0  0  0
    6.5993    0.4383    0.0000 N   0  0  0  0  0  0  0  0  0  0  0  0
    4.1255    0.3610    0.0000 C   0  0  0  0  0  0  0  0  0  0  0  0
    3.5929   -0.2691    0.0000 C   0  0  0  0  0  0  0  0  0  0  0  0
    2.8291    0.0428    0.0000 N   0  0  0  0  0  0  0  0  0  0  0  0
    2.8897    0.8656    0.0000 N   0  0  0  0  0  0  0  0  0  0  0  0
    3.6909    1.0622    0.0000 C   0  0  0  0  0  0  0  0  0  0  0  0
    4.0809    1.7892    0.0000 N   0  0  0  0  0  0  0  0  0  0  0  0
    3.6463    2.4905    0.0000 C   0  0  0  0  0  0  0  0  0  0  0  0
    2.8217    2.4647    0.0000 O   0  0  0  0  0  0  0  0  0  0  0  0
  2  1  1  6  0  0  0
  2  3  1  0  0  0  0
  3  4  1  0  0  0  0
  4  5  1  0  0  0  0
  5  6  1  0  0  0  0
  6  7  1  6  0  0  0
  7  8  1  0  0  0  0
  8  9  1  0  0  0  0
  9 10  1  0  0  0  0
 10 11  1  0  0  0  0
 11 12  4  0  0  0  0
 12 13  1  0  0  0  0
 12 14  4  0  0  0  0
 14 15  4  0  0  0  0
 15 16  4  0  0  0  0
 16 17  1  0  0  0  0
 16 18  4  0  0  0  0
 11 18  4  0  0  0  0
 18 19  1  0  0  0  0
 10 20  2  0  0  0  0
 20 21  1  0  0  0  0
  7 21  1  0  0  0  0
 21 22  2  0  0  0  0
  6 23  1  0  0  0  0
 23 24  4  0  0  0  0
 24 25  4  0  0  0  0
 25 26  4  0  0  0  0
 26 27  4  0  0  0  0
 27 28  4  0  0  0  0
 23 28  4  0  0  0  0
 25 29  1  0  0  0  0
 29 30  4  0  0  0  0
 30 31  4  0  0  0  0
 31 32  4  0  0  0  0
 32 33  4  0  0  0  0
 29 33  4  0  0  0  0
 33 34  1  0  0  0  0
 34 35  1  0  0  0  0
  2 35  1  0  0  0  0
 35 36  2  0  0  0  0
M  STY  1   1 DAT
M  SAL   1  1  32
M  SDT   1 MRV_IMPLICIT_H                                        
M  SDD   1     0.0000    0.0000    DR    ALL  0       0  
M  SED   1 IMPL_H1
M  END
>  <CdId>
358635

>  <Mol Weight>
511.951

>  <Formula>
C26H24ClF2N5O2

>  <cmpd_chemblid>
CHEMBL4108453

>  <std_type>
Ki

>  <std_value>
416.7

>  <std_unit>
nM

>  <target_id>
CHEMBL2016

>  <target_name>
Coagulation factor IX

>  <organism>
Homo sapiens

>  <target_type>
SINGLE PROTEIN

$$$$

  Mrv0541 08052111042D          

 31 34  0  0  0  0            999 V2000
    2.6378    3.1729    0.0000 C   0  0  0  0  0  0  0  0  0  0  0  0
    3.3523    3.5854    0.0000 O   0  0  0  0  0  0  0  0  0  0  0  0
    3.3523    4.4104    0.0000 C   0  0  0  0  0  0  0  0  0  0  0  0
    2.6378    4.8229    0.0000 O   0  0  0  0  0  0  0  0  0  0  0  0
    4.0668    4.8229    0.0000 C   0  0  0  0  0  0  0  0  0  0  0  0
    4.7812    4.4104    0.0000 O   0  0  0  0  0  0  0  0  0  0  0  0
    4.7812    3.5854    0.0000 C   0  0  0  0  0  0  0  0  0  0  0  0
    5.4957    3.1729    0.0000 C   0  0  0  0  0  0  0  0  0  0  0  0
    5.4957    2.3479    0.0000 C   0  0  0  0  0  0  0  0  0  0  0  0
    4.7812    1.9354    0.0000 C   0  0  0  0  0  0  0  0  0  0  0  0
    4.0668    2.3479    0.0000 C   0  0  0  0  0  0  0  0  0  0  0  0
    3.3523    1.9354    0.0000 C   0  0  0  0  0  0  0  0  0  0  0  0
    3.3523    1.1104    0.0000 C   0  0  0  0  0  0  0  0  0  0  0  0
    2.6378    0.6979    0.0000 C   0  0  0  0  0  0  0  0  0  0  0  0
    1.9233    1.1104    0.0000 C   0  0  0  0  0  0  0  0  0  0  0  0
    1.1387    0.8555    0.0000 S   0  0  0  0  0  0  0  0  0  0  0  0
    0.6538    1.5229    0.0000 C   0  0  0  0  0  0  0  0  0  0  0  0
   -0.1712    1.5229    0.0000 C   0  0  0  0  0  0  0  0  0  0  0  0
   -0.5837    0.8085    0.0000 N   0  0  0  0  0  0  0  0  0  0  0  0
   -0.5837    2.2374    0.0000 N   0  0  0  0  0  0  0  0  0  0  0  0
    1.1387    2.1904    0.0000 C   0  0  0  0  0  0  0  0  0  0  0  0
    1.9233    1.9354    0.0000 C   0  0  0  0  0  0  0  0  0  0  0  0
    2.6378    2.3479    0.0000 C   0  0  0  0  0  0  0  0  0  0  0  0
    4.0668    3.1729    0.0000 C   0  0  0  0  0  0  0  0  0  0  0  0
    4.0668    5.6479    0.0000 C   0  0  0  0  0  0  0  0  0  0  0  0
    3.3523    6.0604    0.0000 C   0  0  0  0  0  0  0  0  0  0  0  0
    3.3523    6.8854    0.0000 C   0  0  0  0  0  0  0  0  0  0  0  0
    4.0668    7.2979    0.0000 C   0  0  0  0  0  0  0  0  0  0  0  0
    4.0668    8.1229    0.0000 F   0  0  0  0  0  0  0  0  0  0  0  0
    4.7812    6.8854    0.0000 C   0  0  0  0  0  0  0  0  0  0  0  0
    4.7812    6.0604    0.0000 C   0  0  0  0  0  0  0  0  0  0  0  0
  1  2  1  0  0  0  0
  2  3  1  0  0  0  0
  3  4  2  0  0  0  0
  3  5  1  0  0  0  0
  5  6  1  0  0  0  0
  6  7  1  0  0  0  0
  7  8  4  0  0  0  0
  8  9  4  0  0  0  0
  9 10  4  0  0  0  0
 10 11  4  0  0  0  0
 11 12  1  0  0  0  0
 12 13  4  0  0  0  0
 13 14  4  0  0  0  0
 14 15  4  0  0  0  0
 15 16  4  0  0  0  0
 16 17  4  0  0  0  0
 17 18  1  0  0  0  0
 18 19  2  0  0  0  0
 18 20  1  0  0  0  0
 17 21  4  0  0  0  0
 21 22  4  0  0  0  0
 15 22  4  0  0  0  0
 22 23  4  0  0  0  0
 12 23  4  0  0  0  0
 11 24  4  0  0  0  0
  7 24  4  0  0  0  0
  5 25  1  0  0  0  0
 25 26  4  0  0  0  0
 26 27  4  0  0  0  0
 27 28  4  0  0  0  0
 28 29  1  0  0  0  0
 28 30  4  0  0  0  0
 30 31  4  0  0  0  0
 25 31  4  0  0  0  0
M  END
>  <CdId>
358636

>  <Mol Weight>
434.483

>  <Formula>
C24H19FN2O3S

>  <cmpd_chemblid>
CHEMBL597755

>  <std_type>
Ki

>  <std_value>
40.0

>  <std_unit>
nM

>  <target_id>
CHEMBL2016

>  <target_name>
Coagulation factor IX

>  <organism>
Homo sapiens

>  <target_type>
SINGLE PROTEIN

$$$$

  Mrv0541 08052111042D          

 40 44  0  0  1  0            999 V2000
    3.9849    3.9849    0.0000 C   0  0  0  0  0  0  0  0  0  0  0  0
    4.3974    3.2704    0.0000 C   0  0  0  0  0  0  0  0  0  0  0  0
    5.2224    3.2704    0.0000 C   0  0  0  0  0  0  0  0  0  0  0  0
    5.6349    2.5559    0.0000 C   0  0  0  0  0  0  0  0  0  0  0  0
    6.4599    2.5559    0.0000 C   0  0  0  0  0  0  0  0  0  0  0  0
    6.8724    1.8414    0.0000 C   0  0  2  0  0  0  0  0  0  0  0  0
    7.6974    1.8414    0.0000 N   0  0  0  0  0  0  0  0  0  0  0  0
    8.1099    2.5559    0.0000 C   0  0  0  0  0  0  0  0  0  0  0  0
    8.9349    2.5559    0.0000 C   0  0  0  0  0  0  0  0  0  0  0  0
    9.3474    1.8414    0.0000 C   0  0  0  0  0  0  0  0  0  0  0  0
   10.1724    1.8414    0.0000 C   0  0  0  0  0  0  0  0  0  0  0  0
   10.5849    2.5559    0.0000 C   0  0  0  0  0  0  0  0  0  0  0  0
   10.1724    3.2704    0.0000 Br  0  0  0  0  0  0  0  0  0  0  0  0
   11.4099    2.5559    0.0000 C   0  0  0  0  0  0  0  0  0  0  0  0
   11.8224    1.8414    0.0000 C   0  0  0  0  0  0  0  0  0  0  0  0
   11.4099    1.1270    0.0000 C   0  0  0  0  0  0  0  0  0  0  0  0
   11.8224    0.4125    0.0000 Cl  0  0  0  0  0  0  0  0  0  0  0  0
   10.5849    1.1270    0.0000 C   0  0  0  0  0  0  0  0  0  0  0  0
   10.1724    0.4125    0.0000 F   0  0  0  0  0  0  0  0  0  0  0  0
    8.9349    1.1270    0.0000 C   0  0  0  0  0  0  0  0  0  0  0  0
    8.1099    1.1270    0.0000 C   0  0  0  0  0  0  0  0  0  0  0  0
    7.6974    0.4125    0.0000 O   0  0  0  0  0  0  0  0  0  0  0  0
    6.4599    1.1270    0.0000 C   0  0  0  0  0  0  0  0  0  0  0  0
    5.6349    1.1270    0.0000 C   0  0  0  0  0  0  0  0  0  0  0  0
    5.2224    0.4125    0.0000 C   0  0  0  0  0  0  0  0  0  0  0  0
    5.6349   -0.3020    0.0000 C   0  0  0  0  0  0  0  0  0  0  0  0
    6.4599   -0.3020    0.0000 C   0  0  0  0  0  0  0  0  0  0  0  0
    6.8724    0.4125    0.0000 N   0  0  0  0  0  0  0  0  0  0  0  0
    4.3974    0.4125    0.0000 C   0  0  0  0  0  0  0  0  0  0  0  0
    3.9849   -0.3020    0.0000 C   0  0  0  0  0  0  0  0  0  0  0  0
    3.1599   -0.3020    0.0000 C   0  0  0  0  0  0  0  0  0  0  0  0
    2.7474    0.4125    0.0000 C   0  0  0  0  0  0  0  0  0  0  0  0
    1.9224    0.4125    0.0000 C   0  0  0  0  0  0  0  0  0  0  0  0
    1.5099   -0.3020    0.0000 O   0  0  0  0  0  0  0  0  0  0  0  0
    1.5099    1.1270    0.0000 O   0  0  0  0  0  0  0  0  0  0  0  0
    3.1599    1.1270    0.0000 C   0  0  0  0  0  0  0  0  0  0  0  0
    3.9849    1.1270    0.0000 C   0  0  0  0  0  0  0  0  0  0  0  0
    4.3974    1.8414    0.0000 N   0  0  0  0  0  0  0  0  0  0  0  0
    3.9849    2.5559    0.0000 C   0  0  0  0  0  0  0  0  0  0  0  0
    3.1599    2.5559    0.0000 O   0  0  0  0  0  0  0  0  0  0  0  0
  1  2  1  0  0  0  0
  2  3  1  0  0  0  0
  3  4  1  0  0  0  0
  4  5  1  0  0  0  0
  5  6  1  0  0  0  0
  6  7  1  6  0  0  0
  7  8  1  0  0  0  0
  8  9  1  0  0  0  0
  9 10  1  0  0  0  0
 10 11  1  0  0  0  0
 11 12  4  0  0  0  0
 12 13  1  0  0  0  0
 12 14  4  0  0  0  0
 14 15  4  0  0  0  0
 15 16  4  0  0  0  0
 16 17  1  0  0  0  0
 16 18  4  0  0  0  0
 11 18  4  0  0  0  0
 18 19  1  0  0  0  0
 10 20  2  0  0  0  0
 20 21  1  0  0  0  0
  7 21  1  0  0  0  0
 21 22  2  0  0  0  0
  6 23  1  0  0  0  0
 23 24  4  0  0  0  0
 24 25  4  0  0  0  0
 25 26  4  0  0  0  0
 26 27  4  0  0  0  0
 27 28  4  0  0  0  0
 23 28  4  0  0  0  0
 25 29  1  0  0  0  0
 29 30  4  0  0  0  0
 30 31  4  0  0  0  0
 31 32  4  0  0  0  0
 32 33  1  0  0  0  0
 33 34  2  0  0  0  0
 33 35  1  0  0  0  0
 32 36  4  0  0  0  0
 36 37  4  0  0  0  0
 29 37  4  0  0  0  0
 37 38  1  0  0  0  0
 38 39  1  0  0  0  0
  2 39  1  0  0  0  0
 39 40  2  0  0  0  0
M  END
>  <CdId>
358637

>  <Mol Weight>
626.901

>  <Formula>
C30H26BrClFN3O4

>  <cmpd_chemblid>
CHEMBL3929758

>  <std_type>
Ki

>  <std_value>
443.3

>  <std_unit>
nM

>  <target_id>
CHEMBL2016

>  <target_name>
Coagulation factor IX

>  <organism>
Homo sapiens

>  <target_type>
SINGLE PROTEIN

$$$$

  Mrv0541 08052111042D          

 40 45  0  0  1  0            999 V2000
    3.9849    3.9849    0.0000 C   0  0  0  0  0  0  0  0  0  0  0  0
    4.3974    3.2704    0.0000 C   0  0  2  0  0  0  0  0  0  0  0  0
    5.2224    3.2704    0.0000 C   0  0  0  0  0  0  0  0  0  0  0  0
    5.6349    2.5559    0.0000 C   0  0  0  0  0  0  0  0  0  0  0  0
    6.4599    2.5559    0.0000 C   0  0  0  0  0  0  0  0  0  0  0  0
    6.8724    1.8414    0.0000 C   0  0  2  0  0  0  0  0  0  0  0  0
    7.6974    1.8414    0.0000 N   0  0  0  0  0  0  0  0  0  0  0  0
    8.1099    2.5559    0.0000 C   0  0  0  0  0  0  0  0  0  0  0  0
    8.9349    2.5559    0.0000 C   0  0  0  0  0  0  0  0  0  0  0  0
    9.3474    1.8414    0.0000 C   0  0  0  0  0  0  0  0  0  0  0  0
   10.1724    1.8414    0.0000 C   0  0  0  0  0  0  0  0  0  0  0  0
   10.5849    2.5559    0.0000 C   0  0  0  0  0  0  0  0  0  0  0  0
   11.4099    2.5559    0.0000 C   0  0  0  0  0  0  0  0  0  0  0  0
   11.8224    3.2704    0.0000 Cl  0  0  0  0  0  0  0  0  0  0  0  0
   11.8224    1.8414    0.0000 C   0  0  0  0  0  0  0  0  0  0  0  0
   11.4099    1.1270    0.0000 C   0  0  0  0  0  0  0  0  0  0  0  0
   10.5849    1.1270    0.0000 C   0  0  0  0  0  0  0  0  0  0  0  0
   10.1724    0.4125    0.0000 N   0  0  0  0  0  0  0  0  0  0  0  0
   10.5079   -0.3412    0.0000 C   0  0  0  0  0  0  0  0  0  0  0  0
    9.8948   -0.8932    0.0000 C   0  0  0  0  0  0  0  0  0  0  0  0
    9.1803   -0.4807    0.0000 N   0  0  0  0  0  0  0  0  0  0  0  0
    9.3519    0.3263    0.0000 N   0  0  0  0  0  0  0  0  0  0  0  0
    8.9349    1.1270    0.0000 C   0  0  0  0  0  0  0  0  0  0  0  0
    8.1099    1.1270    0.0000 C   0  0  0  0  0  0  0  0  0  0  0  0
    7.6974    0.4125    0.0000 O   0  0  0  0  0  0  0  0  0  0  0  0
    6.4599    1.1270    0.0000 C   0  0  0  0  0  0  0  0  0  0  0  0
    5.6349    1.1270    0.0000 C   0  0  0  0  0  0  0  0  0  0  0  0
    5.2224    0.4125    0.0000 C   0  0  0  0  0  0  0  0  0  0  0  0
    5.6349   -0.3020    0.0000 C   0  0  0  0  0  0  0  0  0  0  0  0
    6.4599   -0.3020    0.0000 C   0  0  0  0  0  0  0  0  0  0  0  0
    6.8724    0.4125    0.0000 N   0  0  0  0  0  0  0  0  0  0  0  0
    4.3974    0.4125    0.0000 C   0  0  0  0  0  0  0  0  0  0  0  0
    3.9849   -0.3020    0.0000 C   0  0  0  0  0  0  0  0  0  0  0  0
    3.1599   -0.3020    0.0000 C   0  0  0  0  0  0  0  0  0  0  0  0
    2.7474    0.4125    0.0000 C   0  0  0  0  0  0  0  0  0  0  0  0
    3.1599    1.1270    0.0000 C   0  0  0  0  0  0  0  0  0  0  0  0
    3.9849    1.1270    0.0000 C   0  0  0  0  0  0  0  0  0  0  0  0
    4.3974    1.8414    0.0000 N   0  0  0  0  0  0  0  0  0  0  0  0
    3.9849    2.5559    0.0000 C   0  0  0  0  0  0  0  0  0  0  0  0
    3.1599    2.5559    0.0000 O   0  0  0  0  0  0  0  0  0  0  0  0
  2  1  1  6  0  0  0
  2  3  1  0  0  0  0
  3  4  1  0  0  0  0
  4  5  1  0  0  0  0
  5  6  1  0  0  0  0
  6  7  1  6  0  0  0
  7  8  1  0  0  0  0
  8  9  1  0  0  0  0
  9 10  1  0  0  0  0
 10 11  1  0  0  0  0
 11 12  4  0  0  0  0
 12 13  4  0  0  0  0
 13 14  1  0  0  0  0
 13 15  4  0  0  0  0
 15 16  4  0  0  0  0
 16 17  4  0  0  0  0
 11 17  4  0  0  0  0
 17 18  1  0  0  0  0
 18 19  4  0  0  0  0
 19 20  4  0  0  0  0
 20 21  4  0  0  0  0
 21 22  4  0  0  0  0
 18 22  4  0  0  0  0
 10 23  2  0  0  0  0
 23 24  1  0  0  0  0
  7 24  1  0  0  0  0
 24 25  2  0  0  0  0
  6 26  1  0  0  0  0
 26 27  4  0  0  0  0
 27 28  4  0  0  0  0
 28 29  4  0  0  0  0
 29 30  4  0  0  0  0
 30 31  4  0  0  0  0
 26 31  4  0  0  0  0
 28 32  1  0  0  0  0
 32 33  4  0  0  0  0
 33 34  4  0  0  0  0
 34 35  4  0  0  0  0
 35 36  4  0  0  0  0
 36 37  4  0  0  0  0
 32 37  4  0  0  0  0
 37 38  1  0  0  0  0
 38 39  1  0  0  0  0
  2 39  1  0  0  0  0
 39 40  2  0  0  0  0
M  END
>  <CdId>
358638

>  <Mol Weight>
553.054

>  <Formula>
C31H29ClN6O2

>  <cmpd_chemblid>
CHEMBL4110549

>  <std_type>
Ki

>  <std_value>
2.28

>  <std_unit>
nM

>  <target_id>
CHEMBL2016

>  <target_name>
Coagulation factor IX

>  <organism>
Homo sapiens

>  <target_type>
SINGLE PROTEIN

$$$$

  Mrv0541 08052111042D          

 38 43  0  0  1  0            999 V2000
   -1.4066   -1.6301    0.0000 C   0  0  0  0  0  0  0  0  0  0  0  0
   -0.5996   -1.8016    0.0000 C   0  0  0  0  0  0  0  0  0  0  0  0
   -0.3446   -2.5862    0.0000 C   0  0  0  0  0  0  0  0  0  0  0  0
    0.4623   -2.7578    0.0000 C   0  0  0  0  0  0  0  0  0  0  0  0
    1.0144   -2.1447    0.0000 C   0  0  0  0  0  0  0  0  0  0  0  0
    1.8394   -2.1447    0.0000 C   0  0  0  0  0  0  0  0  0  0  0  0
    2.0943   -1.3601    0.0000 C   0  0  0  0  0  0  0  0  0  0  0  0
    1.4269   -0.8751    0.0000 N   0  0  0  0  0  0  0  0  0  0  0  0
    0.7594   -1.3601    0.0000 N   0  0  0  0  0  0  0  0  0  0  0  0
   -0.0476   -1.1885    0.0000 C   0  0  0  0  0  0  0  0  0  0  0  0
    2.9013   -1.1885    0.0000 C   0  0  0  0  0  0  0  0  0  0  0  0
    3.4533   -1.8016    0.0000 C   0  0  0  0  0  0  0  0  0  0  0  0
    3.1984   -2.5862    0.0000 C   0  0  2  0  0  0  0  0  0  0  0  0
    4.0153   -2.7011    0.0000 N   0  0  0  0  0  0  0  0  0  0  0  0
    4.5233   -2.0510    0.0000 C   0  0  0  0  0  0  0  0  0  0  0  0
    4.2142   -1.2860    0.0000 O   0  0  0  0  0  0  0  0  0  0  0  0
    5.3402   -2.1658    0.0000 C   0  0  0  0  0  0  0  0  0  0  0  0
    5.8481   -1.5157    0.0000 C   0  0  0  0  0  0  0  0  0  0  0  0
    5.5391   -0.7507    0.0000 Cl  0  0  0  0  0  0  0  0  0  0  0  0
    6.6651   -1.6305    0.0000 C   0  0  0  0  0  0  0  0  0  0  0  0
    6.9742   -2.3954    0.0000 C   0  0  0  0  0  0  0  0  0  0  0  0
    7.7911   -2.5102    0.0000 N   0  0  0  0  0  0  0  0  0  0  0  0
    8.3642   -1.9168    0.0000 C   0  0  0  0  0  0  0  0  0  0  0  0
    9.1057   -2.2784    0.0000 N   0  0  0  0  0  0  0  0  0  0  0  0
    8.9909   -3.0954    0.0000 C   0  0  0  0  0  0  0  0  0  0  0  0
    9.5844   -3.6685    0.0000 C   0  0  0  0  0  0  0  0  0  0  0  0
    8.1785   -3.2387    0.0000 N   0  0  0  0  0  0  0  0  0  0  0  0
    6.4662   -3.0455    0.0000 C   0  0  0  0  0  0  0  0  0  0  0  0
    5.6493   -2.9307    0.0000 C   0  0  0  0  0  0  0  0  0  0  0  0
    5.1414   -3.5808    0.0000 Cl  0  0  0  0  0  0  0  0  0  0  0  0
    3.2272   -3.4107    0.0000 C   0  0  0  0  0  0  0  0  0  0  0  0
    3.9556   -3.7981    0.0000 C   0  0  0  0  0  0  0  0  0  0  0  0
    3.9844   -4.6226    0.0000 C   0  0  0  0  0  0  0  0  0  0  0  0
    3.2847   -5.0597    0.0000 C   0  0  0  0  0  0  0  0  0  0  0  0
    2.5563   -4.6724    0.0000 C   0  0  0  0  0  0  0  0  0  0  0  0
    1.8567   -5.1096    0.0000 F   0  0  0  0  0  0  0  0  0  0  0  0
    2.5275   -3.8479    0.0000 C   0  0  0  0  0  0  0  0  0  0  0  0
    2.3914   -2.7578    0.0000 C   0  0  0  0  0  0  0  0  0  0  0  0
  1  2  1  0  0  0  0
  2  3  4  0  0  0  0
  3  4  4  0  0  0  0
  4  5  4  0  0  0  0
  5  6  4  0  0  0  0
  6  7  4  0  0  0  0
  7  8  4  0  0  0  0
  8  9  4  0  0  0  0
  5  9  4  0  0  0  0
  9 10  4  0  0  0  0
  2 10  4  0  0  0  0
  7 11  1  0  0  0  0
 11 12  1  0  0  0  0
 12 13  1  0  0  0  0
 13 14  1  1  0  0  0
 14 15  1  0  0  0  0
 15 16  2  0  0  0  0
 15 17  1  0  0  0  0
 17 18  4  0  0  0  0
 18 19  1  0  0  0  0
 18 20  4  0  0  0  0
 20 21  4  0  0  0  0
 21 22  1  0  0  0  0
 22 23  4  0  0  0  0
 23 24  4  0  0  0  0
 24 25  4  0  0  0  0
 25 26  1  0  0  0  0
 25 27  4  0  0  0  0
 22 27  4  0  0  0  0
 21 28  4  0  0  0  0
 28 29  4  0  0  0  0
 17 29  4  0  0  0  0
 29 30  1  0  0  0  0
 13 31  1  6  0  0  0
 31 32  4  0  0  0  0
 32 33  4  0  0  0  0
 33 34  4  0  0  0  0
 34 35  4  0  0  0  0
 35 36  1  0  0  0  0
 35 37  4  0  0  0  0
 31 37  4  0  0  0  0
 13 38  1  0  0  0  0
  6 38  1  0  0  0  0
M  END
>  <CdId>
358640

>  <Mol Weight>
549.426

>  <Formula>
C28H23Cl2FN6O

>  <cmpd_chemblid>
CHEMBL3628948

>  <std_type>
Ki

>  <std_value>
6.6

>  <std_unit>
nM

>  <target_id>
CHEMBL2016

>  <target_name>
Coagulation factor IX

>  <organism>
Homo sapiens

>  <target_type>
SINGLE PROTEIN

$$$$

  Mrv0541 08052111042D          

 35 39  0  0  1  0            999 V2000
    2.7845    0.6979    0.0000 C   0  0  0  0  0  0  0  0  0  0  0  0
    2.0701    1.1104    0.0000 C   0  0  0  0  0  0  0  0  0  0  0  0
    1.3556    0.6979    0.0000 C   0  0  0  0  0  0  0  0  0  0  0  0
    0.6411    1.1104    0.0000 C   0  0  0  0  0  0  0  0  0  0  0  0
   -0.1435    0.8555    0.0000 N   0  0  0  0  0  0  0  0  0  0  0  0
   -0.6284    1.5229    0.0000 C   0  0  0  0  0  0  0  0  0  0  0  0
   -1.4534    1.5229    0.0000 C   0  0  1  0  0  0  0  0  0  0  0  0
   -1.8659    0.8085    0.0000 C   0  0  0  0  0  0  0  0  0  0  0  0
   -2.6909    0.8085    0.0000 N   0  0  0  0  0  0  0  0  0  0  0  0
   -3.1034    0.0940    0.0000 C   0  0  0  0  0  0  0  0  0  0  0  0
   -2.6909   -0.6205    0.0000 O   0  0  0  0  0  0  0  0  0  0  0  0
   -3.9284    0.0940    0.0000 C   0  0  0  0  0  0  0  0  0  0  0  0
   -4.3409   -0.6205    0.0000 C   0  0  0  0  0  0  0  0  0  0  0  0
   -3.9284   -1.3349    0.0000 F   0  0  0  0  0  0  0  0  0  0  0  0
   -5.1659   -0.6205    0.0000 C   0  0  0  0  0  0  0  0  0  0  0  0
   -5.5784    0.0940    0.0000 C   0  0  0  0  0  0  0  0  0  0  0  0
   -6.4034    0.0940    0.0000 N   0  0  0  0  0  0  0  0  0  0  0  0
   -6.8884   -0.5734    0.0000 C   0  0  0  0  0  0  0  0  0  0  0  0
   -7.6730   -0.3185    0.0000 N   0  0  0  0  0  0  0  0  0  0  0  0
   -7.6730    0.5065    0.0000 N   0  0  0  0  0  0  0  0  0  0  0  0
   -6.8884    0.7614    0.0000 C   0  0  0  0  0  0  0  0  0  0  0  0
   -5.1659    0.8085    0.0000 C   0  0  0  0  0  0  0  0  0  0  0  0
   -4.3409    0.8085    0.0000 C   0  0  0  0  0  0  0  0  0  0  0  0
   -3.9284    1.5229    0.0000 Cl  0  0  0  0  0  0  0  0  0  0  0  0
   -1.8659    2.2374    0.0000 C   0  0  0  0  0  0  0  0  0  0  0  0
   -2.6909    2.2374    0.0000 C   0  0  0  0  0  0  0  0  0  0  0  0
   -3.1034    2.9519    0.0000 C   0  0  0  0  0  0  0  0  0  0  0  0
   -2.6909    3.6664    0.0000 C   0  0  0  0  0  0  0  0  0  0  0  0
   -1.8659    3.6664    0.0000 C   0  0  0  0  0  0  0  0  0  0  0  0
   -1.4534    2.9519    0.0000 C   0  0  0  0  0  0  0  0  0  0  0  0
   -0.1435    2.1904    0.0000 N   0  0  0  0  0  0  0  0  0  0  0  0
    0.6411    1.9354    0.0000 C   0  0  0  0  0  0  0  0  0  0  0  0
    1.3556    2.3479    0.0000 C   0  0  0  0  0  0  0  0  0  0  0  0
    2.0701    1.9354    0.0000 C   0  0  0  0  0  0  0  0  0  0  0  0
    2.7845    2.3479    0.0000 C   0  0  0  0  0  0  0  0  0  0  0  0
  1  2  1  0  0  0  0
  2  3  4  0  0  0  0
  3  4  4  0  0  0  0
  4  5  4  0  0  0  0
  5  6  4  0  0  0  0
  6  7  1  0  0  0  0
  7  8  1  0  0  0  0
  8  9  1  0  0  0  0
  9 10  1  0  0  0  0
 10 11  2  0  0  0  0
 10 12  1  0  0  0  0
 12 13  4  0  0  0  0
 13 14  1  0  0  0  0
 13 15  4  0  0  0  0
 15 16  4  0  0  0  0
 16 17  1  0  0  0  0
 17 18  4  0  0  0  0
 18 19  4  0  0  0  0
 19 20  4  0  0  0  0
 20 21  4  0  0  0  0
 17 21  4  0  0  0  0
 16 22  4  0  0  0  0
 22 23  4  0  0  0  0
 12 23  4  0  0  0  0
 23 24  1  0  0  0  0
  7 25  1  1  0  0  0
 25 26  4  0  0  0  0
 26 27  4  0  0  0  0
 27 28  4  0  0  0  0
 28 29  4  0  0  0  0
 29 30  4  0  0  0  0
 25 30  4  0  0  0  0
  6 31  4  0  0  0  0
 31 32  4  0  0  0  0
  4 32  4  0  0  0  0
 32 33  4  0  0  0  0
 33 34  4  0  0  0  0
  2 34  4  0  0  0  0
 34 35  1  0  0  0  0
M  STY  1   1 DAT
M  SAL   1  1  31
M  SDT   1 MRV_IMPLICIT_H                                        
M  SDD   1     0.0000    0.0000    DR    ALL  0       0  
M  SED   1 IMPL_H1
M  END
>  <CdId>
358641

>  <Mol Weight>
488.944

>  <Formula>
C26H22ClFN6O

>  <cmpd_chemblid>
CHEMBL3627865

>  <std_type>
Ki

>  <std_value>
15.2

>  <std_unit>
nM

>  <target_id>
CHEMBL2016

>  <target_name>
Coagulation factor IX

>  <organism>
Homo sapiens

>  <target_type>
SINGLE PROTEIN

$$$$

  Mrv0541 08052111042D          

 39 44  0  0  1  0            999 V2000
   -1.4066   -1.6301    0.0000 C   0  0  0  0  0  0  0  0  0  0  0  0
   -0.5996   -1.8016    0.0000 C   0  0  0  0  0  0  0  0  0  0  0  0
   -0.3446   -2.5862    0.0000 C   0  0  0  0  0  0  0  0  0  0  0  0
    0.4623   -2.7578    0.0000 C   0  0  0  0  0  0  0  0  0  0  0  0
    1.0144   -2.1447    0.0000 C   0  0  0  0  0  0  0  0  0  0  0  0
    1.8394   -2.1447    0.0000 C   0  0  0  0  0  0  0  0  0  0  0  0
    2.0943   -1.3601    0.0000 C   0  0  0  0  0  0  0  0  0  0  0  0
    1.4269   -0.8751    0.0000 N   0  0  0  0  0  0  0  0  0  0  0  0
    0.7594   -1.3601    0.0000 N   0  0  0  0  0  0  0  0  0  0  0  0
   -0.0476   -1.1885    0.0000 C   0  0  0  0  0  0  0  0  0  0  0  0
    2.9013   -1.1885    0.0000 C   0  0  0  0  0  0  0  0  0  0  0  0
    3.4533   -1.8016    0.0000 C   0  0  0  0  0  0  0  0  0  0  0  0
    3.1984   -2.5862    0.0000 C   0  0  2  0  0  0  0  0  0  0  0  0
    4.0153   -2.7011    0.0000 N   0  0  0  0  0  0  0  0  0  0  0  0
    4.5233   -2.0510    0.0000 C   0  0  0  0  0  0  0  0  0  0  0  0
    4.2142   -1.2860    0.0000 O   0  0  0  0  0  0  0  0  0  0  0  0
    5.3402   -2.1658    0.0000 C   0  0  0  0  0  0  0  0  0  0  0  0
    5.8481   -1.5157    0.0000 C   0  0  0  0  0  0  0  0  0  0  0  0
    5.5391   -0.7507    0.0000 Cl  0  0  0  0  0  0  0  0  0  0  0  0
    6.6651   -1.6305    0.0000 C   0  0  0  0  0  0  0  0  0  0  0  0
    6.9742   -2.3954    0.0000 C   0  0  0  0  0  0  0  0  0  0  0  0
    7.7911   -2.5102    0.0000 N   0  0  0  0  0  0  0  0  0  0  0  0
    8.3642   -1.9168    0.0000 C   0  0  0  0  0  0  0  0  0  0  0  0
    9.1057   -2.2784    0.0000 N   0  0  0  0  0  0  0  0  0  0  0  0
    8.9909   -3.0954    0.0000 C   0  0  0  0  0  0  0  0  0  0  0  0
    9.5844   -3.6685    0.0000 C   0  0  0  0  0  0  0  0  0  0  0  0
    8.1785   -3.2387    0.0000 N   0  0  0  0  0  0  0  0  0  0  0  0
    6.4662   -3.0455    0.0000 C   0  0  0  0  0  0  0  0  0  0  0  0
    5.6493   -2.9307    0.0000 C   0  0  0  0  0  0  0  0  0  0  0  0
    5.1414   -3.5808    0.0000 Cl  0  0  0  0  0  0  0  0  0  0  0  0
    3.2272   -3.4107    0.0000 C   0  0  0  0  0  0  0  0  0  0  0  0
    3.9111   -3.8721    0.0000 C   0  0  0  0  0  0  0  0  0  0  0  0
    3.6837   -4.6651    0.0000 N   0  0  0  0  0  0  0  0  0  0  0  0
    4.1916   -5.3152    0.0000 C   0  0  0  0  0  0  0  0  0  0  0  0
    3.8826   -6.0801    0.0000 C   0  0  0  0  0  0  0  0  0  0  0  0
    5.0086   -5.2004    0.0000 C   0  0  0  0  0  0  0  0  0  0  0  0
    2.8592   -4.6939    0.0000 N   0  0  0  0  0  0  0  0  0  0  0  0
    2.5770   -3.9187    0.0000 N   0  0  0  0  0  0  0  0  0  0  0  0
    2.3914   -2.7578    0.0000 C   0  0  0  0  0  0  0  0  0  0  0  0
  1  2  1  0  0  0  0
  2  3  4  0  0  0  0
  3  4  4  0  0  0  0
  4  5  4  0  0  0  0
  5  6  4  0  0  0  0
  6  7  4  0  0  0  0
  7  8  4  0  0  0  0
  8  9  4  0  0  0  0
  5  9  4  0  0  0  0
  9 10  4  0  0  0  0
  2 10  4  0  0  0  0
  7 11  1  0  0  0  0
 11 12  1  0  0  0  0
 12 13  1  0  0  0  0
 13 14  1  1  0  0  0
 14 15  1  0  0  0  0
 15 16  2  0  0  0  0
 15 17  1  0  0  0  0
 17 18  4  0  0  0  0
 18 19  1  0  0  0  0
 18 20  4  0  0  0  0
 20 21  4  0  0  0  0
 21 22  1  0  0  0  0
 22 23  4  0  0  0  0
 23 24  4  0  0  0  0
 24 25  4  0  0  0  0
 25 26  1  0  0  0  0
 25 27  4  0  0  0  0
 22 27  4  0  0  0  0
 21 28  4  0  0  0  0
 28 29  4  0  0  0  0
 17 29  4  0  0  0  0
 29 30  1  0  0  0  0
 13 31  1  6  0  0  0
 31 32  4  0  0  0  0
 32 33  4  0  0  0  0
 33 34  1  0  0  0  0
 34 35  1  0  0  0  0
 34 36  1  0  0  0  0
 33 37  4  0  0  0  0
 37 38  4  0  0  0  0
 31 38  4  0  0  0  0
 13 39  1  0  0  0  0
  6 39  1  0  0  0  0
M  END
>  <CdId>
358642

>  <Mol Weight>
564.469

>  <Formula>
C27H27Cl2N9O

>  <cmpd_chemblid>
CHEMBL3628953

>  <std_type>
Ki

>  <std_value>
5.0

>  <std_unit>
nM

>  <target_id>
CHEMBL2016

>  <target_name>
Coagulation factor IX

>  <organism>
Homo sapiens

>  <target_type>
SINGLE PROTEIN

$$$$

  Mrv0541 08052111042D          

 41 45  0  0  1  0            999 V2000
    8.6329   -2.2539    0.0000 C   0  0  0  0  0  0  0  0  0  0  0  0
    8.2204   -1.5395    0.0000 O   0  0  0  0  0  0  0  0  0  0  0  0
    7.3954   -1.5395    0.0000 C   0  0  0  0  0  0  0  0  0  0  0  0
    6.9829   -2.2539    0.0000 O   0  0  0  0  0  0  0  0  0  0  0  0
    6.9829   -0.8250    0.0000 N   0  0  0  0  0  0  0  0  0  0  0  0
    6.1579   -0.8250    0.0000 C   0  0  0  0  0  0  0  0  0  0  0  0
    5.7454   -0.1105    0.0000 C   0  0  0  0  0  0  0  0  0  0  0  0
    4.9204   -0.1105    0.0000 C   0  0  0  0  0  0  0  0  0  0  0  0
    4.5079   -0.8250    0.0000 C   0  0  0  0  0  0  0  0  0  0  0  0
    4.9204   -1.5395    0.0000 C   0  0  0  0  0  0  0  0  0  0  0  0
    5.7454   -1.5395    0.0000 C   0  0  0  0  0  0  0  0  0  0  0  0
    4.5079   -2.2539    0.0000 N   0  0  0  0  0  0  0  0  0  0  0  0
    4.9204   -2.9684    0.0000 C   0  0  0  0  0  0  0  0  0  0  0  0
    5.7454   -2.9684    0.0000 O   0  0  0  0  0  0  0  0  0  0  0  0
    4.5079   -3.6829    0.0000 C   0  0  2  0  0  0  0  0  0  0  0  0
    4.9204   -4.3974    0.0000 C   0  0  0  0  0  0  0  0  0  0  0  0
    3.6829   -3.6829    0.0000 C   0  0  0  0  0  0  0  0  0  0  0  0
    3.2704   -2.9684    0.0000 C   0  0  0  0  0  0  0  0  0  0  0  0
    2.4454   -2.9684    0.0000 C   0  0  0  0  0  0  0  0  0  0  0  0
    2.0329   -2.2539    0.0000 C   0  0  2  0  0  0  0  0  0  0  0  0
    1.2079   -2.2539    0.0000 N   0  0  0  0  0  0  0  0  0  0  0  0
    0.7954   -2.9684    0.0000 C   0  0  0  0  0  0  0  0  0  0  0  0
   -0.0296   -2.9684    0.0000 C   0  0  0  0  0  0  0  0  0  0  0  0
   -0.4421   -2.2539    0.0000 C   0  0  0  0  0  0  0  0  0  0  0  0
   -1.2671   -2.2539    0.0000 C   0  0  0  0  0  0  0  0  0  0  0  0
   -1.6796   -2.9684    0.0000 C   0  0  0  0  0  0  0  0  0  0  0  0
   -2.5046   -2.9684    0.0000 C   0  0  0  0  0  0  0  0  0  0  0  0
   -2.9171   -2.2539    0.0000 C   0  0  0  0  0  0  0  0  0  0  0  0
   -2.5046   -1.5395    0.0000 C   0  0  0  0  0  0  0  0  0  0  0  0
   -2.9171   -0.8250    0.0000 C   0  0  0  0  0  0  0  0  0  0  0  0
   -1.6796   -1.5395    0.0000 C   0  0  0  0  0  0  0  0  0  0  0  0
   -1.2671   -0.8250    0.0000 C   0  0  0  0  0  0  0  0  0  0  0  0
   -0.0296   -1.5395    0.0000 C   0  0  0  0  0  0  0  0  0  0  0  0
    0.7954   -1.5395    0.0000 C   0  0  0  0  0  0  0  0  0  0  0  0
    1.2079   -0.8250    0.0000 O   0  0  0  0  0  0  0  0  0  0  0  0
    2.4454   -1.5395    0.0000 C   0  0  0  0  0  0  0  0  0  0  0  0
    3.2704   -1.5395    0.0000 C   0  0  0  0  0  0  0  0  0  0  0  0
    3.6829   -0.8250    0.0000 C   0  0  0  0  0  0  0  0  0  0  0  0
    3.2704   -0.1105    0.0000 C   0  0  0  0  0  0  0  0  0  0  0  0
    2.4454   -0.1105    0.0000 C   0  0  0  0  0  0  0  0  0  0  0  0
    2.0329   -0.8250    0.0000 N   0  0  0  0  0  0  0  0  0  0  0  0
  1  2  1  0  0  0  0
  2  3  1  0  0  0  0
  3  4  2  0  0  0  0
  3  5  1  0  0  0  0
  5  6  1  0  0  0  0
  6  7  4  0  0  0  0
  7  8  4  0  0  0  0
  8  9  4  0  0  0  0
  9 10  4  0  0  0  0
 10 11  4  0  0  0  0
  6 11  4  0  0  0  0
 10 12  1  0  0  0  0
 12 13  1  0  0  0  0
 13 14  2  0  0  0  0
 13 15  1  0  0  0  0
 15 16  1  6  0  0  0
 15 17  1  0  0  0  0
 17 18  1  0  0  0  0
 18 19  1  0  0  0  0
 19 20  1  0  0  0  0
 20 21  1  6  0  0  0
 21 22  1  0  0  0  0
 22 23  1  0  0  0  0
 23 24  1  0  0  0  0
 24 25  1  0  0  0  0
 25 26  4  0  0  0  0
 26 27  4  0  0  0  0
 27 28  4  0  0  0  0
 28 29  4  0  0  0  0
 29 30  1  0  0  0  0
 29 31  4  0  0  0  0
 25 31  4  0  0  0  0
 31 32  1  0  0  0  0
 24 33  2  0  0  0  0
 33 34  1  0  0  0  0
 21 34  1  0  0  0  0
 34 35  2  0  0  0  0
 20 36  1  0  0  0  0
 36 37  4  0  0  0  0
 37 38  4  0  0  0  0
  9 38  1  0  0  0  0
 38 39  4  0  0  0  0
 39 40  4  0  0  0  0
 40 41  4  0  0  0  0
 36 41  4  0  0  0  0
M  END
>  <CdId>
358643

>  <Mol Weight>
552.6633

>  <Formula>
C33H36N4O4

>  <cmpd_chemblid>
CHEMBL4108004

>  <std_type>
Ki

>  <std_value>
107.9

>  <std_unit>
nM

>  <target_id>
CHEMBL2016

>  <target_name>
Coagulation factor IX

>  <organism>
Homo sapiens

>  <target_type>
SINGLE PROTEIN

$$$$

  Mrv0541 08052111042D          

 32 36  0  0  1  0            999 V2000
    0.8838   -2.1500    0.0000 N   0  0  0  0  0  0  0  0  0  0  0  0
    1.1387   -1.3654    0.0000 C   0  0  0  0  0  0  0  0  0  0  0  0
    0.6538   -0.6979    0.0000 N   0  0  0  0  0  0  0  0  0  0  0  0
    1.1387   -0.0305    0.0000 O   0  0  0  0  0  0  0  0  0  0  0  0
    1.9233   -0.2854    0.0000 C   0  0  0  0  0  0  0  0  0  0  0  0
    2.6378    0.1271    0.0000 C   0  0  0  0  0  0  0  0  0  0  0  0
    2.6378    0.9521    0.0000 N   0  0  0  0  0  0  0  0  0  0  0  0
    1.9704    1.4370    0.0000 C   0  0  0  0  0  0  0  0  0  0  0  0
    2.2253    2.2216    0.0000 C   0  0  0  0  0  0  0  0  0  0  0  0
    3.0503    2.2216    0.0000 C   0  0  1  0  0  0  0  0  0  0  0  0
    3.5352    2.8890    0.0000 N   0  0  0  0  0  0  0  0  0  0  0  0
    3.1997    3.6427    0.0000 C   0  0  0  0  0  0  0  0  0  0  0  0
    2.3792    3.7290    0.0000 O   0  0  0  0  0  0  0  0  0  0  0  0
    3.6846    4.3102    0.0000 C   0  0  0  0  0  0  0  0  0  0  0  0
    3.3490    5.0638    0.0000 C   0  0  0  0  0  0  0  0  0  0  0  0
    3.8340    5.7313    0.0000 C   0  0  0  0  0  0  0  0  0  0  0  0
    4.6544    5.6450    0.0000 C   0  0  0  0  0  0  0  0  0  0  0  0
    5.1394    6.3125    0.0000 N   0  0  0  0  0  0  0  0  0  0  0  0
    4.8844    7.0971    0.0000 C   0  0  0  0  0  0  0  0  0  0  0  0
    5.5519    7.5820    0.0000 N   0  0  0  0  0  0  0  0  0  0  0  0
    6.2193    7.0971    0.0000 N   0  0  0  0  0  0  0  0  0  0  0  0
    5.9644    6.3125    0.0000 C   0  0  0  0  0  0  0  0  0  0  0  0
    4.9900    4.8914    0.0000 C   0  0  0  0  0  0  0  0  0  0  0  0
    4.5051    4.2239    0.0000 C   0  0  0  0  0  0  0  0  0  0  0  0
    4.8406    3.4702    0.0000 Cl  0  0  0  0  0  0  0  0  0  0  0  0
    3.3053    1.4370    0.0000 C   0  0  0  0  0  0  0  0  0  0  0  0
    3.3523   -0.2854    0.0000 C   0  0  0  0  0  0  0  0  0  0  0  0
    3.3523   -1.1104    0.0000 C   0  0  0  0  0  0  0  0  0  0  0  0
    4.0668   -1.5229    0.0000 Cl  0  0  0  0  0  0  0  0  0  0  0  0
    2.6378   -1.5229    0.0000 C   0  0  0  0  0  0  0  0  0  0  0  0
    2.6378   -2.3479    0.0000 Cl  0  0  0  0  0  0  0  0  0  0  0  0
    1.9233   -1.1104    0.0000 C   0  0  0  0  0  0  0  0  0  0  0  0
  1  2  1  0  0  0  0
  2  3  4  0  0  0  0
  3  4  4  0  0  0  0
  4  5  4  0  0  0  0
  5  6  4  0  0  0  0
  6  7  1  0  0  0  0
  7  8  1  0  0  0  0
  8  9  1  0  0  0  0
  9 10  1  0  0  0  0
 10 11  1  1  0  0  0
 11 12  1  0  0  0  0
 12 13  2  0  0  0  0
 12 14  1  0  0  0  0
 14 15  4  0  0  0  0
 15 16  4  0  0  0  0
 16 17  4  0  0  0  0
 17 18  1  0  0  0  0
 18 19  4  0  0  0  0
 19 20  4  0  0  0  0
 20 21  4  0  0  0  0
 21 22  4  0  0  0  0
 18 22  4  0  0  0  0
 17 23  4  0  0  0  0
 23 24  4  0  0  0  0
 14 24  4  0  0  0  0
 24 25  1  0  0  0  0
 10 26  1  0  0  0  0
  7 26  1  0  0  0  0
  6 27  4  0  0  0  0
 27 28  4  0  0  0  0
 28 29  1  0  0  0  0
 28 30  4  0  0  0  0
 30 31  1  0  0  0  0
 30 32  4  0  0  0  0
  2 32  4  0  0  0  0
  5 32  4  0  0  0  0
M  END
>  <CdId>
358644

>  <Mol Weight>
492.746

>  <Formula>
C20H16Cl3N7O2

>  <cmpd_chemblid>
CHEMBL4072364

>  <std_type>
Ki

>  <std_value>
23.5

>  <std_unit>
nM

>  <target_id>
CHEMBL2016

>  <target_name>
Coagulation factor IX

>  <organism>
Homo sapiens

>  <target_type>
SINGLE PROTEIN

$$$$

  Mrv0541 08052111042D          

 42 47  0  0  1  0            999 V2000
    3.9849    3.9849    0.0000 C   0  0  0  0  0  0  0  0  0  0  0  0
    4.3974    3.2704    0.0000 C   0  0  2  0  0  0  0  0  0  0  0  0
    5.2224    3.2704    0.0000 C   0  0  0  0  0  0  0  0  0  0  0  0
    5.6349    2.5559    0.0000 C   0  0  0  0  0  0  0  0  0  0  0  0
    6.4599    2.5559    0.0000 C   0  0  0  0  0  0  0  0  0  0  0  0
    6.8724    1.8414    0.0000 C   0  0  2  0  0  0  0  0  0  0  0  0
    7.6974    1.8414    0.0000 N   0  0  0  0  0  0  0  0  0  0  0  0
    8.1099    2.5559    0.0000 C   0  0  0  0  0  0  0  0  0  0  0  0
    8.9349    2.5559    0.0000 C   0  0  0  0  0  0  0  0  0  0  0  0
    9.3474    1.8414    0.0000 C   0  0  0  0  0  0  0  0  0  0  0  0
   10.1724    1.8414    0.0000 C   0  0  0  0  0  0  0  0  0  0  0  0
   10.5849    2.5559    0.0000 C   0  0  0  0  0  0  0  0  0  0  0  0
   10.1724    3.2704    0.0000 C   0  0  0  0  0  0  0  0  0  0  0  0
    9.3474    3.2704    0.0000 C   0  0  0  0  0  0  0  0  0  0  0  0
    8.9349    3.9849    0.0000 C   0  0  0  0  0  0  0  0  0  0  0  0
    9.3474    4.6993    0.0000 C   0  0  0  0  0  0  0  0  0  0  0  0
   10.1724    4.6993    0.0000 C   0  0  0  0  0  0  0  0  0  0  0  0
   10.5849    3.9849    0.0000 C   0  0  0  0  0  0  0  0  0  0  0  0
   11.4099    2.5559    0.0000 C   0  0  0  0  0  0  0  0  0  0  0  0
   11.8224    1.8414    0.0000 C   0  0  0  0  0  0  0  0  0  0  0  0
   11.4099    1.1270    0.0000 C   0  0  0  0  0  0  0  0  0  0  0  0
   11.8224    0.4125    0.0000 Cl  0  0  0  0  0  0  0  0  0  0  0  0
   10.5849    1.1270    0.0000 C   0  0  0  0  0  0  0  0  0  0  0  0
   10.1724    0.4125    0.0000 F   0  0  0  0  0  0  0  0  0  0  0  0
    8.9349    1.1270    0.0000 C   0  0  0  0  0  0  0  0  0  0  0  0
    8.1099    1.1270    0.0000 C   0  0  0  0  0  0  0  0  0  0  0  0
    7.6974    0.4125    0.0000 O   0  0  0  0  0  0  0  0  0  0  0  0
    6.4599    1.1270    0.0000 C   0  0  0  0  0  0  0  0  0  0  0  0
    5.6349    1.1270    0.0000 C   0  0  0  0  0  0  0  0  0  0  0  0
    5.2224    0.4125    0.0000 C   0  0  0  0  0  0  0  0  0  0  0  0
    5.6349   -0.3020    0.0000 C   0  0  0  0  0  0  0  0  0  0  0  0
    6.4599   -0.3020    0.0000 C   0  0  0  0  0  0  0  0  0  0  0  0
    6.8724    0.4125    0.0000 N   0  0  0  0  0  0  0  0  0  0  0  0
    4.3974    0.4125    0.0000 C   0  0  0  0  0  0  0  0  0  0  0  0
    3.9849   -0.3020    0.0000 C   0  0  0  0  0  0  0  0  0  0  0  0
    3.1599   -0.3020    0.0000 C   0  0  0  0  0  0  0  0  0  0  0  0
    2.7474    0.4125    0.0000 C   0  0  0  0  0  0  0  0  0  0  0  0
    3.1599    1.1270    0.0000 C   0  0  0  0  0  0  0  0  0  0  0  0
    3.9849    1.1270    0.0000 C   0  0  0  0  0  0  0  0  0  0  0  0
    4.3974    1.8414    0.0000 N   0  0  0  0  0  0  0  0  0  0  0  0
    3.9849    2.5559    0.0000 C   0  0  0  0  0  0  0  0  0  0  0  0
    3.1599    2.5559    0.0000 O   0  0  0  0  0  0  0  0  0  0  0  0
  2  1  1  6  0  0  0
  2  3  1  0  0  0  0
  3  4  1  0  0  0  0
  4  5  1  0  0  0  0
  5  6  1  0  0  0  0
  6  7  1  6  0  0  0
  7  8  1  0  0  0  0
  8  9  1  0  0  0  0
  9 10  1  0  0  0  0
 10 11  1  0  0  0  0
 11 12  4  0  0  0  0
 12 13  1  0  0  0  0
 13 14  4  0  0  0  0
 14 15  4  0  0  0  0
 15 16  4  0  0  0  0
 16 17  4  0  0  0  0
 17 18  4  0  0  0  0
 13 18  4  0  0  0  0
 12 19  4  0  0  0  0
 19 20  4  0  0  0  0
 20 21  4  0  0  0  0
 21 22  1  0  0  0  0
 21 23  4  0  0  0  0
 11 23  4  0  0  0  0
 23 24  1  0  0  0  0
 10 25  2  0  0  0  0
 25 26  1  0  0  0  0
  7 26  1  0  0  0  0
 26 27  2  0  0  0  0
  6 28  1  0  0  0  0
 28 29  4  0  0  0  0
 29 30  4  0  0  0  0
 30 31  4  0  0  0  0
 31 32  4  0  0  0  0
 32 33  4  0  0  0  0
 28 33  4  0  0  0  0
 30 34  1  0  0  0  0
 34 35  4  0  0  0  0
 35 36  4  0  0  0  0
 36 37  4  0  0  0  0
 37 38  4  0  0  0  0
 38 39  4  0  0  0  0
 34 39  4  0  0  0  0
 39 40  1  0  0  0  0
 40 41  1  0  0  0  0
  2 41  1  0  0  0  0
 41 42  2  0  0  0  0
M  END
>  <CdId>
358645

>  <Mol Weight>
580.091

>  <Formula>
C35H31ClFN3O2

>  <cmpd_chemblid>
CHEMBL4113963

>  <std_type>
Ki

>  <std_value>
35.56

>  <std_unit>
nM

>  <target_id>
CHEMBL2016

>  <target_name>
Coagulation factor IX

>  <organism>
Homo sapiens

>  <target_type>
SINGLE PROTEIN

$$$$

  Mrv0541 08052111042D          

 36 40  0  0  1  0            999 V2000
    1.4289   -2.4750    0.0000 N   0  0  0  0  0  0  0  0  0  0  0  0
    1.4289   -1.6500    0.0000 C   0  0  0  0  0  0  0  0  0  0  0  0
    0.7145   -1.2375    0.0000 N   0  0  0  0  0  0  0  0  0  0  0  0
    0.7145   -0.4125    0.0000 C   0  0  0  0  0  0  0  0  0  0  0  0
    1.4289    0.0000    0.0000 C   0  0  0  0  0  0  0  0  0  0  0  0
    2.1434   -0.4125    0.0000 C   0  0  0  0  0  0  0  0  0  0  0  0
    2.8579    0.0000    0.0000 C   0  0  0  0  0  0  0  0  0  0  0  0
    3.5724   -0.4125    0.0000 C   0  0  0  0  0  0  0  0  0  0  0  0
    4.2868   -0.0000    0.0000 C   0  0  0  0  0  0  0  0  0  0  0  0
    4.2868    0.8250    0.0000 C   0  0  2  0  0  0  0  0  0  0  0  0
    3.5724    1.2375    0.0000 C   0  0  0  0  0  0  0  0  0  0  0  0
    2.8579    0.8250    0.0000 O   0  0  0  0  0  0  0  0  0  0  0  0
    3.5724    2.0625    0.0000 O   0  0  0  0  0  0  0  0  0  0  0  0
    5.0013    1.2375    0.0000 N   0  0  0  0  0  0  0  0  0  0  0  0
    5.0875    2.0580    0.0000 C   0  0  0  0  0  0  0  0  0  0  0  0
    5.8945    2.2295    0.0000 C   0  0  0  0  0  0  0  0  0  0  0  0
    6.3070    1.5150    0.0000 C   0  0  2  0  0  0  0  0  0  0  0  0
    7.1275    1.4288    0.0000 N   0  0  0  0  0  0  0  0  0  0  0  0
    7.6124    2.0962    0.0000 S   0  0  0  0  0  0  0  0  0  0  0  0
    8.2798    1.6113    0.0000 O   0  0  0  0  0  0  0  0  0  0  0  0
    6.9450    2.5812    0.0000 O   0  0  0  0  0  0  0  0  0  0  0  0
    8.0973    2.7637    0.0000 C   0  0  0  0  0  0  0  0  0  0  0  0
    7.8424    3.5483    0.0000 C   0  0  0  0  0  0  0  0  0  0  0  0
    8.5098    4.0332    0.0000 N   0  0  0  0  0  0  0  0  0  0  0  0
    9.1773    3.5483    0.0000 C   0  0  0  0  0  0  0  0  0  0  0  0
    9.9619    3.8032    0.0000 N   0  0  0  0  0  0  0  0  0  0  0  0
   10.3364    4.5383    0.0000 C   0  0  0  0  0  0  0  0  0  0  0  0
   11.0715    4.1638    0.0000 C   0  0  0  0  0  0  0  0  0  0  0  0
   10.6970    3.4287    0.0000 C   0  0  0  0  0  0  0  0  0  0  0  0
    8.9223    2.7637    0.0000 S   0  0  0  0  0  0  0  0  0  0  0  0
    5.7550    0.9019    0.0000 C   0  0  0  0  0  0  0  0  0  0  0  0
    5.9265    0.0950    0.0000 O   0  0  0  0  0  0  0  0  0  0  0  0
    3.5724   -1.2375    0.0000 C   0  0  0  0  0  0  0  0  0  0  0  0
    4.2868   -1.6500    0.0000 Cl  0  0  0  0  0  0  0  0  0  0  0  0
    2.8579   -1.6500    0.0000 C   0  0  0  0  0  0  0  0  0  0  0  0
    2.1434   -1.2375    0.0000 C   0  0  0  0  0  0  0  0  0  0  0  0
  1  2  1  0  0  0  0
  2  3  4  0  0  0  0
  3  4  4  0  0  0  0
  4  5  4  0  0  0  0
  5  6  4  0  0  0  0
  6  7  4  0  0  0  0
  7  8  4  0  0  0  0
  8  9  1  0  0  0  0
  9 10  1  0  0  0  0
 10 11  1  0  0  0  0
 11 12  2  0  0  0  0
 11 13  1  0  0  0  0
 10 14  1  6  0  0  0
 14 15  1  0  0  0  0
 15 16  1  0  0  0  0
 16 17  1  0  0  0  0
 17 18  1  6  0  0  0
 18 19  1  0  0  0  0
 19 20  2  0  0  0  0
 19 21  2  0  0  0  0
 19 22  1  0  0  0  0
 22 23  4  0  0  0  0
 23 24  4  0  0  0  0
 24 25  4  0  0  0  0
 25 26  1  0  0  0  0
 26 27  1  0  0  0  0
 27 28  1  0  0  0  0
 28 29  1  0  0  0  0
 26 29  1  0  0  0  0
 25 30  4  0  0  0  0
 22 30  4  0  0  0  0
 17 31  1  0  0  0  0
 14 31  1  0  0  0  0
 31 32  2  0  0  0  0
  8 33  4  0  0  0  0
 33 34  1  0  0  0  0
 33 35  4  0  0  0  0
 35 36  4  0  0  0  0
  2 36  4  0  0  0  0
  6 36  4  0  0  0  0
M  END
>  <CdId>
358646

>  <Mol Weight>
551.038

>  <Formula>
C22H23ClN6O5S2

>  <cmpd_chemblid>
CHEMBL3962887

>  <std_type>
Ki

>  <std_value>
60.0

>  <std_unit>
nM

>  <target_id>
CHEMBL2016

>  <target_name>
Coagulation factor IX

>  <organism>
Homo sapiens

>  <target_type>
SINGLE PROTEIN

$$$$

  Mrv0541 08052111042D          

 36 41  0  0  1  0            999 V2000
    4.7674    0.7556    0.0000 C   0  0  0  0  0  0  0  0  0  0  0  0
    3.9604    0.5840    0.0000 C   0  0  0  0  0  0  0  0  0  0  0  0
    3.7054   -0.2006    0.0000 C   0  0  0  0  0  0  0  0  0  0  0  0
    2.8985   -0.3721    0.0000 C   0  0  0  0  0  0  0  0  0  0  0  0
    2.3464    0.2410    0.0000 C   0  0  0  0  0  0  0  0  0  0  0  0
    2.6014    1.0256    0.0000 C   0  0  0  0  0  0  0  0  0  0  0  0
    3.4084    1.1971    0.0000 C   0  0  0  0  0  0  0  0  0  0  0  0
    1.9339    1.5105    0.0000 C   0  0  0  0  0  0  0  0  0  0  0  0
    1.2665    1.0256    0.0000 C   0  0  0  0  0  0  0  0  0  0  0  0
    1.5214    0.2410    0.0000 N   0  0  0  0  0  0  0  0  0  0  0  0
    0.9694   -0.3721    0.0000 C   0  0  0  0  0  0  0  0  0  0  0  0
    0.1624   -0.2006    0.0000 C   0  0  1  0  0  0  0  0  0  0  0  0
    0.1336   -1.0251    0.0000 N   0  0  0  0  0  0  0  0  0  0  0  0
    0.8333   -1.4623    0.0000 C   0  0  0  0  0  0  0  0  0  0  0  0
    1.5617   -1.0750    0.0000 O   0  0  0  0  0  0  0  0  0  0  0  0
    0.8045   -2.2868    0.0000 C   0  0  0  0  0  0  0  0  0  0  0  0
    1.5041   -2.7240    0.0000 C   0  0  0  0  0  0  0  0  0  0  0  0
    2.2326   -2.3366    0.0000 Cl  0  0  0  0  0  0  0  0  0  0  0  0
    1.4753   -3.5485    0.0000 C   0  0  0  0  0  0  0  0  0  0  0  0
    0.7469   -3.9358    0.0000 C   0  0  0  0  0  0  0  0  0  0  0  0
    0.7181   -4.7603    0.0000 N   0  0  0  0  0  0  0  0  0  0  0  0
    1.3682   -5.2682    0.0000 C   0  0  0  0  0  0  0  0  0  0  0  0
    1.0861   -6.0434    0.0000 N   0  0  0  0  0  0  0  0  0  0  0  0
    0.2616   -6.0146    0.0000 N   0  0  0  0  0  0  0  0  0  0  0  0
    0.0342   -5.2216    0.0000 C   0  0  0  0  0  0  0  0  0  0  0  0
    0.0473   -3.4986    0.0000 C   0  0  0  0  0  0  0  0  0  0  0  0
    0.0761   -2.6741    0.0000 C   0  0  0  0  0  0  0  0  0  0  0  0
   -0.6236   -2.2369    0.0000 Cl  0  0  0  0  0  0  0  0  0  0  0  0
   -0.6545   -0.3154    0.0000 C   0  0  0  0  0  0  0  0  0  0  0  0
   -0.9636   -1.0803    0.0000 C   0  0  0  0  0  0  0  0  0  0  0  0
   -1.7806   -1.1952    0.0000 C   0  0  0  0  0  0  0  0  0  0  0  0
   -2.2885   -0.5450    0.0000 C   0  0  0  0  0  0  0  0  0  0  0  0
   -1.9794    0.2199    0.0000 C   0  0  0  0  0  0  0  0  0  0  0  0
   -1.1625    0.3347    0.0000 C   0  0  0  0  0  0  0  0  0  0  0  0
   -0.0925    0.5840    0.0000 C   0  0  0  0  0  0  0  0  0  0  0  0
    0.4595    1.1971    0.0000 C   0  0  0  0  0  0  0  0  0  0  0  0
  1  2  1  0  0  0  0
  2  3  4  0  0  0  0
  3  4  4  0  0  0  0
  4  5  4  0  0  0  0
  5  6  4  0  0  0  0
  6  7  4  0  0  0  0
  2  7  4  0  0  0  0
  6  8  4  0  0  0  0
  8  9  4  0  0  0  0
  9 10  4  0  0  0  0
  5 10  4  0  0  0  0
 10 11  1  0  0  0  0
 11 12  1  0  0  0  0
 12 13  1  6  0  0  0
 13 14  1  0  0  0  0
 14 15  2  0  0  0  0
 14 16  1  0  0  0  0
 16 17  4  0  0  0  0
 17 18  1  0  0  0  0
 17 19  4  0  0  0  0
 19 20  4  0  0  0  0
 20 21  1  0  0  0  0
 21 22  4  0  0  0  0
 22 23  4  0  0  0  0
 23 24  4  0  0  0  0
 24 25  4  0  0  0  0
 21 25  4  0  0  0  0
 20 26  4  0  0  0  0
 26 27  4  0  0  0  0
 16 27  4  0  0  0  0
 27 28  1  0  0  0  0
 12 29  1  1  0  0  0
 29 30  4  0  0  0  0
 30 31  4  0  0  0  0
 31 32  4  0  0  0  0
 32 33  4  0  0  0  0
 33 34  4  0  0  0  0
 29 34  4  0  0  0  0
 12 35  1  0  0  0  0
 35 36  1  0  0  0  0
  9 36  1  0  0  0  0
M  END
>  <CdId>
358647

>  <Mol Weight>
516.421

>  <Formula>
C28H23Cl2N5O

>  <cmpd_chemblid>
CHEMBL3628956

>  <std_type>
Ki

>  <std_value>
34.8

>  <std_unit>
nM

>  <target_id>
CHEMBL2016

>  <target_name>
Coagulation factor IX

>  <organism>
Homo sapiens

>  <target_type>
SINGLE PROTEIN

$$$$

  Mrv0541 08052111042D          

 46 50  0  0  0  0            999 V2000
    2.4192   -2.3731    0.0000 N   0  0  0  0  0  0  0  0  0  0  0  0
    1.7048   -1.9606    0.0000 C   0  0  0  0  0  0  0  0  0  0  0  0
    1.7048   -1.1356    0.0000 N   0  0  0  0  0  0  0  0  0  0  0  0
    0.9903   -2.3731    0.0000 C   0  0  0  0  0  0  0  0  0  0  0  0
    0.9903   -3.1981    0.0000 C   0  0  0  0  0  0  0  0  0  0  0  0
    0.2758   -3.6106    0.0000 C   0  0  0  0  0  0  0  0  0  0  0  0
   -0.4386   -3.1981    0.0000 C   0  0  0  0  0  0  0  0  0  0  0  0
   -1.2233   -3.4530    0.0000 N   0  0  0  0  0  0  0  0  0  0  0  0
   -1.7082   -2.7856    0.0000 C   0  0  0  0  0  0  0  0  0  0  0  0
   -1.2233   -2.1181    0.0000 C   0  0  0  0  0  0  0  0  0  0  0  0
   -1.4782   -1.3335    0.0000 C   0  0  0  0  0  0  0  0  0  0  0  0
   -2.2852   -1.1620    0.0000 C   0  0  0  0  0  0  0  0  0  0  0  0
   -2.5401   -0.3774    0.0000 C   0  0  0  0  0  0  0  0  0  0  0  0
   -3.3471   -0.2058    0.0000 C   0  0  0  0  0  0  0  0  0  0  0  0
   -3.6020    0.5788    0.0000 C   0  0  0  0  0  0  0  0  0  0  0  0
   -3.0500    1.1919    0.0000 C   0  0  0  0  0  0  0  0  0  0  0  0
   -2.2430    1.0204    0.0000 C   0  0  0  0  0  0  0  0  0  0  0  0
   -1.9881    0.2357    0.0000 C   0  0  0  0  0  0  0  0  0  0  0  0
   -0.9262   -0.7204    0.0000 C   0  0  0  0  0  0  0  0  0  0  0  0
   -0.1192   -0.8919    0.0000 O   0  0  0  0  0  0  0  0  0  0  0  0
   -1.1811    0.0642    0.0000 N   0  0  0  0  0  0  0  0  0  0  0  0
   -0.6291    0.6773    0.0000 C   0  0  0  0  0  0  0  0  0  0  0  0
   -0.8840    1.4619    0.0000 C   0  0  0  0  0  0  0  0  0  0  0  0
   -0.3320    2.0750    0.0000 C   0  0  0  0  0  0  0  0  0  0  0  0
    0.4750    1.9035    0.0000 C   0  0  0  0  0  0  0  0  0  0  0  0
    1.0270    2.5166    0.0000 N   0  0  0  0  0  0  0  0  0  0  0  0
    0.8555    3.3236    0.0000 C   0  0  0  0  0  0  0  0  0  0  0  0
    1.5700    3.7361    0.0000 N   0  0  0  0  0  0  0  0  0  0  0  0
    2.1831    3.1840    0.0000 C   0  0  0  0  0  0  0  0  0  0  0  0
    3.0035    3.2703    0.0000 C   0  0  0  0  0  0  0  0  0  0  0  0
    3.4885    2.6028    0.0000 C   0  0  0  0  0  0  0  0  0  0  0  0
    3.1529    1.8492    0.0000 C   0  0  0  0  0  0  0  0  0  0  0  0
    2.3324    1.7629    0.0000 C   0  0  0  0  0  0  0  0  0  0  0  0
    1.8475    2.4304    0.0000 C   0  0  0  0  0  0  0  0  0  0  0  0
    0.7299    1.1189    0.0000 C   0  0  0  0  0  0  0  0  0  0  0  0
    0.1779    0.5058    0.0000 C   0  0  0  0  0  0  0  0  0  0  0  0
    0.4328   -0.2788    0.0000 F   0  0  0  0  0  0  0  0  0  0  0  0
   -0.4386   -2.3731    0.0000 C   0  0  0  0  0  0  0  0  0  0  0  0
    0.2758   -1.9606    0.0000 C   0  0  0  0  0  0  0  0  0  0  0  0
    5.6026   -0.8839    0.0000 O   0  0  0  0  0  0  0  0  0  0  0  0
    6.3170   -0.4714    0.0000 C   0  0  0  0  0  0  0  0  0  0  0  0
    7.0315   -0.8839    0.0000 O   0  0  0  0  0  0  0  0  0  0  0  0
    6.3170    0.3536    0.0000 C   0  0  0  0  0  0  0  0  0  0  0  0
    6.3170    1.1786    0.0000 F   0  0  0  0  0  0  0  0  0  0  0  0
    7.1420    0.3536    0.0000 F   0  0  0  0  0  0  0  0  0  0  0  0
    5.4920    0.3536    0.0000 F   0  0  0  0  0  0  0  0  0  0  0  0
  1  2  2  0  0  0  0
  2  3  1  0  0  0  0
  2  4  1  0  0  0  0
  4  5  4  0  0  0  0
  5  6  4  0  0  0  0
  6  7  4  0  0  0  0
  7  8  4  0  0  0  0
  8  9  4  0  0  0  0
  9 10  4  0  0  0  0
 10 11  1  0  0  0  0
 11 12  1  0  0  0  0
 12 13  1  0  0  0  0
 13 14  4  0  0  0  0
 14 15  4  0  0  0  0
 15 16  4  0  0  0  0
 16 17  4  0  0  0  0
 17 18  4  0  0  0  0
 13 18  4  0  0  0  0
 11 19  1  0  0  0  0
 19 20  2  0  0  0  0
 19 21  1  0  0  0  0
 21 22  1  0  0  0  0
 22 23  4  0  0  0  0
 23 24  4  0  0  0  0
 24 25  4  0  0  0  0
 25 26  1  0  0  0  0
 26 27  4  0  0  0  0
 27 28  4  0  0  0  0
 28 29  4  0  0  0  0
 29 30  4  0  0  0  0
 30 31  4  0  0  0  0
 31 32  4  0  0  0  0
 32 33  4  0  0  0  0
 33 34  4  0  0  0  0
 29 34  4  0  0  0  0
 26 34  4  0  0  0  0
 25 35  4  0  0  0  0
 35 36  4  0  0  0  0
 22 36  4  0  0  0  0
 36 37  1  0  0  0  0
 10 38  4  0  0  0  0
  7 38  4  0  0  0  0
 38 39  4  0  0  0  0
  4 39  4  0  0  0  0
 40 41  2  0  0  0  0
 41 42  1  0  0  0  0
 41 43  1  0  0  0  0
 43 44  1  0  0  0  0
 43 45  1  0  0  0  0
 43 46  1  0  0  0  0
M  STY  1   1 DAT
M  SAL   1  1   8
M  SDT   1 MRV_IMPLICIT_H                                        
M  SDD   1     0.0000    0.0000    DR    ALL  0       0  
M  SED   1 IMPL_H1
M  END
>  <CdId>
358648

>  <Mol Weight>
630.5916

>  <Formula>
C33H26F4N6O3

>  <cmpd_chemblid>
CHEMBL360894

>  <std_type>
Ki

>  <std_value>
63.0

>  <std_unit>
nM

>  <target_id>
CHEMBL2016

>  <target_name>
Coagulation factor IX

>  <organism>
Homo sapiens

>  <target_type>
SINGLE PROTEIN

$$$$

  Mrv0541 08052111042D          

 30 33  0  0  0  0            999 V2000
   -0.5837   -1.4124    0.0000 N   0  0  0  0  0  0  0  0  0  0  0  0
   -0.1712   -0.6979    0.0000 C   0  0  0  0  0  0  0  0  0  0  0  0
   -0.5837    0.0165    0.0000 N   0  0  0  0  0  0  0  0  0  0  0  0
    0.6538   -0.6979    0.0000 C   0  0  0  0  0  0  0  0  0  0  0  0
    1.1387   -0.0305    0.0000 C   0  0  0  0  0  0  0  0  0  0  0  0
    1.9233   -0.2854    0.0000 C   0  0  0  0  0  0  0  0  0  0  0  0
    2.6378    0.1271    0.0000 C   0  0  0  0  0  0  0  0  0  0  0  0
    3.3523   -0.2854    0.0000 C   0  0  0  0  0  0  0  0  0  0  0  0
    4.0668    0.1271    0.0000 C   0  0  0  0  0  0  0  0  0  0  0  0
    4.0668    0.9521    0.0000 C   0  0  0  0  0  0  0  0  0  0  0  0
    4.7812    1.3646    0.0000 C   0  0  0  0  0  0  0  0  0  0  0  0
    5.4957    0.9521    0.0000 C   0  0  0  0  0  0  0  0  0  0  0  0
    5.4957    0.1271    0.0000 C   0  0  0  0  0  0  0  0  0  0  0  0
    6.2102   -0.2854    0.0000 O   0  0  0  0  0  0  0  0  0  0  0  0
    6.9246    0.1271    0.0000 C   0  0  0  0  0  0  0  0  0  0  0  0
    6.9246    0.9521    0.0000 C   0  0  0  0  0  0  0  0  0  0  0  0
    7.6391    1.3646    0.0000 O   0  0  0  0  0  0  0  0  0  0  0  0
    6.2102    1.3646    0.0000 O   0  0  0  0  0  0  0  0  0  0  0  0
    7.6391   -0.2854    0.0000 C   0  0  0  0  0  0  0  0  0  0  0  0
    8.3536    0.1271    0.0000 C   0  0  0  0  0  0  0  0  0  0  0  0
    9.0681   -0.2854    0.0000 C   0  0  0  0  0  0  0  0  0  0  0  0
    9.0681   -1.1104    0.0000 C   0  0  0  0  0  0  0  0  0  0  0  0
    9.7825   -1.5229    0.0000 F   0  0  0  0  0  0  0  0  0  0  0  0
    8.3536   -1.5229    0.0000 C   0  0  0  0  0  0  0  0  0  0  0  0
    7.6391   -1.1104    0.0000 C   0  0  0  0  0  0  0  0  0  0  0  0
    4.7812   -0.2854    0.0000 C   0  0  0  0  0  0  0  0  0  0  0  0
    3.3523   -1.1104    0.0000 C   0  0  0  0  0  0  0  0  0  0  0  0
    2.6378   -1.5229    0.0000 C   0  0  0  0  0  0  0  0  0  0  0  0
    1.9233   -1.1104    0.0000 C   0  0  0  0  0  0  0  0  0  0  0  0
    1.1387   -1.3654    0.0000 S   0  0  0  0  0  0  0  0  0  0  0  0
  1  2  2  0  0  0  0
  2  3  1  0  0  0  0
  2  4  1  0  0  0  0
  4  5  4  0  0  0  0
  5  6  4  0  0  0  0
  6  7  4  0  0  0  0
  7  8  4  0  0  0  0
  8  9  1  0  0  0  0
  9 10  4  0  0  0  0
 10 11  4  0  0  0  0
 11 12  4  0  0  0  0
 12 13  4  0  0  0  0
 13 14  1  0  0  0  0
 14 15  1  0  0  0  0
 15 16  1  0  0  0  0
 16 17  2  0  0  0  0
 16 18  1  0  0  0  0
 15 19  1  0  0  0  0
 19 20  4  0  0  0  0
 20 21  4  0  0  0  0
 21 22  4  0  0  0  0
 22 23  1  0  0  0  0
 22 24  4  0  0  0  0
 24 25  4  0  0  0  0
 19 25  4  0  0  0  0
 13 26  4  0  0  0  0
  9 26  4  0  0  0  0
  8 27  4  0  0  0  0
 27 28  4  0  0  0  0
 28 29  4  0  0  0  0
  6 29  4  0  0  0  0
 29 30  4  0  0  0  0
  4 30  4  0  0  0  0
M  END
>  <CdId>
358649

>  <Mol Weight>
420.456

>  <Formula>
C23H17FN2O3S

>  <cmpd_chemblid>
CHEMBL596739

>  <std_type>
Ki

>  <std_value>
21.0

>  <std_unit>
nM

>  <target_id>
CHEMBL2016

>  <target_name>
Coagulation factor IX

>  <organism>
Homo sapiens

>  <target_type>
SINGLE PROTEIN

$$$$

  Mrv0541 08052111042D          

 41 43  0  0  1  0            999 V2000
   -4.4318    0.5512    0.0000 C   0  0  0  0  0  0  0  0  0  0  0  0
   -4.0193   -0.1633    0.0000 O   0  0  0  0  0  0  0  0  0  0  0  0
   -3.1943   -0.1633    0.0000 C   0  0  0  0  0  0  0  0  0  0  0  0
   -2.7818    0.5512    0.0000 O   0  0  0  0  0  0  0  0  0  0  0  0
   -2.7818   -0.8778    0.0000 C   0  0  2  0  0  0  0  0  0  0  0  0
   -3.1943   -1.5923    0.0000 C   0  0  0  0  0  0  0  0  0  0  0  0
   -2.7818   -2.3067    0.0000 C   0  0  0  0  0  0  0  0  0  0  0  0
   -1.9568   -2.3067    0.0000 C   0  0  0  0  0  0  0  0  0  0  0  0
   -1.5443   -1.5923    0.0000 C   0  0  0  0  0  0  0  0  0  0  0  0
   -1.9568   -0.8778    0.0000 C   0  0  0  0  0  0  0  0  0  0  0  0
   -1.5443   -0.1633    0.0000 N   0  0  0  0  0  0  0  0  0  0  0  0
   -0.7193   -0.1633    0.0000 N   0  0  0  0  0  0  0  0  0  0  0  0
   -0.3068    0.5512    0.0000 C   0  0  0  0  0  0  0  0  0  0  0  0
   -0.7193    1.2656    0.0000 O   0  0  0  0  0  0  0  0  0  0  0  0
    0.5182    0.5512    0.0000 C   0  0  0  0  0  0  0  0  0  0  0  0
    0.9307   -0.1633    0.0000 C   0  0  0  0  0  0  0  0  0  0  0  0
    0.5182   -0.8778    0.0000 C   0  0  0  0  0  0  0  0  0  0  0  0
    0.9307   -1.5923    0.0000 C   0  0  0  0  0  0  0  0  0  0  0  0
    0.5182   -2.3067    0.0000 C   0  0  0  0  0  0  0  0  0  0  0  0
   -0.3068   -2.3067    0.0000 C   0  0  0  0  0  0  0  0  0  0  0  0
   -0.7193   -1.5923    0.0000 C   0  0  0  0  0  0  0  0  0  0  0  0
   -0.3068   -0.8778    0.0000 C   0  0  0  0  0  0  0  0  0  0  0  0
    0.9307    1.2656    0.0000 C   0  0  0  0  0  0  0  0  0  0  0  0
    0.5952    2.0193    0.0000 C   0  0  0  0  0  0  0  0  0  0  0  0
    1.2083    2.5713    0.0000 S   0  0  0  0  0  0  0  0  0  0  0  0
    1.9228    2.1588    0.0000 C   0  0  0  0  0  0  0  0  0  0  0  0
    2.7074    2.4138    0.0000 C   0  0  0  0  0  0  0  0  0  0  0  0
    3.3205    1.8617    0.0000 C   0  0  0  0  0  0  0  0  0  0  0  0
    3.1489    1.0548    0.0000 C   0  0  0  0  0  0  0  0  0  0  0  0
    3.7620    0.5027    0.0000 C   0  0  0  0  0  0  0  0  0  0  0  0
    4.5467    0.7577    0.0000 N   0  0  0  0  0  0  0  0  0  0  0  0
    3.5905   -0.3042    0.0000 N   0  0  0  0  0  0  0  0  0  0  0  0
    2.3643    0.7998    0.0000 C   0  0  0  0  0  0  0  0  0  0  0  0
    1.7512    1.3519    0.0000 C   0  0  0  0  0  0  0  0  0  0  0  0
    6.6608   -0.8839    0.0000 O   0  0  0  0  0  0  0  0  0  0  0  0
    7.3752   -0.4714    0.0000 C   0  0  0  0  0  0  0  0  0  0  0  0
    8.0897   -0.8839    0.0000 O   0  0  0  0  0  0  0  0  0  0  0  0
    7.3752    0.3536    0.0000 C   0  0  0  0  0  0  0  0  0  0  0  0
    7.3752    1.1786    0.0000 F   0  0  0  0  0  0  0  0  0  0  0  0
    8.2002    0.3536    0.0000 F   0  0  0  0  0  0  0  0  0  0  0  0
    6.5502    0.3536    0.0000 F   0  0  0  0  0  0  0  0  0  0  0  0
  1  2  1  0  0  0  0
  2  3  1  0  0  0  0
  3  4  2  0  0  0  0
  5  3  1  1  0  0  0
  5  6  1  0  0  0  0
  6  7  1  0  0  0  0
  7  8  1  0  0  0  0
  8  9  1  0  0  0  0
  9 10  1  0  0  0  0
  5 10  1  0  0  0  0
 10 11  1  0  0  0  0
 11 12  1  0  0  0  0
 12 13  1  0  0  0  0
 13 14  2  0  0  0  0
 13 15  1  0  0  0  0
 15 16  1  0  0  0  0
 16 17  1  0  0  0  0
 17 18  4  0  0  0  0
 18 19  4  0  0  0  0
 19 20  4  0  0  0  0
 20 21  4  0  0  0  0
 21 22  4  0  0  0  0
 17 22  4  0  0  0  0
 15 23  1  0  0  0  0
 23 24  4  0  0  0  0
 24 25  4  0  0  0  0
 25 26  4  0  0  0  0
 26 27  4  0  0  0  0
 27 28  4  0  0  0  0
 28 29  4  0  0  0  0
 29 30  1  0  0  0  0
 30 31  2  0  0  0  0
 30 32  1  0  0  0  0
 29 33  4  0  0  0  0
 33 34  4  0  0  0  0
 23 34  4  0  0  0  0
 26 34  4  0  0  0  0
 35 36  2  0  0  0  0
 36 37  1  0  0  0  0
 36 38  1  0  0  0  0
 38 39  1  0  0  0  0
 38 40  1  0  0  0  0
 38 41  1  0  0  0  0
M  END
>  <CdId>
358650

>  <Mol Weight>
592.63

>  <Formula>
C28H31F3N4O5S

>  <cmpd_chemblid>
CHEMBL183547

>  <std_type>
Ki

>  <std_value>
500.0

>  <std_unit>
nM

>  <target_id>
CHEMBL2016

>  <target_name>
Coagulation factor IX

>  <organism>
Homo sapiens

>  <target_type>
SINGLE PROTEIN

$$$$

  Mrv0541 08052111042D          

 31 34  0  0  0  0            999 V2000
    3.9934    7.4250    0.0000 C   0  0  0  0  0  0  0  0  0  0  0  0
    4.7079    7.0125    0.0000 O   0  0  0  0  0  0  0  0  0  0  0  0
    4.7079    6.1875    0.0000 C   0  0  0  0  0  0  0  0  0  0  0  0
    5.4223    5.7750    0.0000 C   0  0  0  0  0  0  0  0  0  0  0  0
    5.4223    4.9500    0.0000 C   0  0  0  0  0  0  0  0  0  0  0  0
    4.7079    4.5375    0.0000 C   0  0  0  0  0  0  0  0  0  0  0  0
    4.7079    3.7125    0.0000 N   0  0  0  0  0  0  0  0  0  0  0  0
    3.9934    3.3000    0.0000 C   0  0  0  0  0  0  0  0  0  0  0  0
    3.2789    3.7125    0.0000 O   0  0  0  0  0  0  0  0  0  0  0  0
    3.9934    2.4750    0.0000 C   0  0  0  0  0  0  0  0  0  0  0  0
    3.2789    2.0625    0.0000 O   0  0  0  0  0  0  0  0  0  0  0  0
    3.2789    1.2375    0.0000 C   0  0  0  0  0  0  0  0  0  0  0  0
    3.9934    0.8250    0.0000 C   0  0  0  0  0  0  0  0  0  0  0  0
    3.9934    0.0000    0.0000 C   0  0  0  0  0  0  0  0  0  0  0  0
    3.2789   -0.4125    0.0000 C   0  0  0  0  0  0  0  0  0  0  0  0
    2.5645    0.0000    0.0000 C   0  0  0  0  0  0  0  0  0  0  0  0
    1.7798   -0.2549    0.0000 S   0  0  0  0  0  0  0  0  0  0  0  0
    1.2949    0.4125    0.0000 C   0  0  0  0  0  0  0  0  0  0  0  0
    0.4699    0.4125    0.0000 C   0  0  0  0  0  0  0  0  0  0  0  0
    0.0574   -0.3020    0.0000 N   0  0  0  0  0  0  0  0  0  0  0  0
    0.0574    1.1270    0.0000 N   0  0  0  0  0  0  0  0  0  0  0  0
    1.7798    1.0799    0.0000 C   0  0  0  0  0  0  0  0  0  0  0  0
    2.5645    0.8250    0.0000 C   0  0  0  0  0  0  0  0  0  0  0  0
    4.7079    2.0625    0.0000 C   0  0  0  0  0  0  0  0  0  0  0  0
    5.4223    2.4750    0.0000 C   0  0  0  0  0  0  0  0  0  0  0  0
    6.1368    2.0625    0.0000 C   0  0  0  0  0  0  0  0  0  0  0  0
    6.1368    1.2375    0.0000 C   0  0  0  0  0  0  0  0  0  0  0  0
    5.4223    0.8250    0.0000 C   0  0  0  0  0  0  0  0  0  0  0  0
    4.7079    1.2375    0.0000 C   0  0  0  0  0  0  0  0  0  0  0  0
    3.9934    4.9500    0.0000 C   0  0  0  0  0  0  0  0  0  0  0  0
    3.9934    5.7750    0.0000 C   0  0  0  0  0  0  0  0  0  0  0  0
  1  2  1  0  0  0  0
  2  3  1  0  0  0  0
  3  4  4  0  0  0  0
  4  5  4  0  0  0  0
  5  6  4  0  0  0  0
  6  7  1  0  0  0  0
  7  8  1  0  0  0  0
  8  9  2  0  0  0  0
  8 10  1  0  0  0  0
 10 11  1  0  0  0  0
 11 12  1  0  0  0  0
 12 13  4  0  0  0  0
 13 14  4  0  0  0  0
 14 15  4  0  0  0  0
 15 16  4  0  0  0  0
 16 17  4  0  0  0  0
 17 18  4  0  0  0  0
 18 19  1  0  0  0  0
 19 20  2  0  0  0  0
 19 21  1  0  0  0  0
 18 22  4  0  0  0  0
 22 23  4  0  0  0  0
 12 23  4  0  0  0  0
 16 23  4  0  0  0  0
 10 24  1  0  0  0  0
 24 25  4  0  0  0  0
 25 26  4  0  0  0  0
 26 27  4  0  0  0  0
 27 28  4  0  0  0  0
 28 29  4  0  0  0  0
 24 29  4  0  0  0  0
  6 30  4  0  0  0  0
 30 31  4  0  0  0  0
  3 31  4  0  0  0  0
M  END
>  <CdId>
358651

>  <Mol Weight>
431.507

>  <Formula>
C24H21N3O3S

>  <cmpd_chemblid>
CHEMBL596948

>  <std_type>
Ki

>  <std_value>
140.0

>  <std_unit>
nM

>  <target_id>
CHEMBL2016

>  <target_name>
Coagulation factor IX

>  <organism>
Homo sapiens

>  <target_type>
SINGLE PROTEIN

$$$$

  Mrv0541 08052111042D          

 50 55  0  0  1  0            999 V2000
    7.3954   -4.3974    0.0000 C   0  0  0  0  0  0  0  0  0  0  0  0
    6.9829   -3.6829    0.0000 O   0  0  0  0  0  0  0  0  0  0  0  0
    7.3954   -2.9684    0.0000 C   0  0  2  0  0  0  0  0  0  0  0  0
    6.9829   -2.2539    0.0000 C   0  0  1  0  0  0  0  0  0  0  0  0
    6.1579   -2.2539    0.0000 O   0  0  0  0  0  0  0  0  0  0  0  0
    7.3954   -1.5395    0.0000 C   0  0  0  0  0  0  0  0  0  0  0  0
    6.9829   -0.8250    0.0000 N   0  0  0  0  0  0  0  0  0  0  0  0
    6.1579   -0.8250    0.0000 C   0  0  0  0  0  0  0  0  0  0  0  0
    5.7454   -0.1105    0.0000 C   0  0  0  0  0  0  0  0  0  0  0  0
    4.9204   -0.1105    0.0000 C   0  0  0  0  0  0  0  0  0  0  0  0
    4.5079   -0.8250    0.0000 C   0  0  0  0  0  0  0  0  0  0  0  0
    4.9204   -1.5395    0.0000 C   0  0  0  0  0  0  0  0  0  0  0  0
    5.7454   -1.5395    0.0000 C   0  0  0  0  0  0  0  0  0  0  0  0
    4.5079   -2.2539    0.0000 N   0  0  0  0  0  0  0  0  0  0  0  0
    4.9204   -2.9684    0.0000 C   0  0  0  0  0  0  0  0  0  0  0  0
    5.7454   -2.9684    0.0000 O   0  0  0  0  0  0  0  0  0  0  0  0
    4.5079   -3.6829    0.0000 C   0  0  2  0  0  0  0  0  0  0  0  0
    4.9204   -4.3974    0.0000 C   0  0  0  0  0  0  0  0  0  0  0  0
    3.6829   -3.6829    0.0000 C   0  0  0  0  0  0  0  0  0  0  0  0
    3.2704   -2.9684    0.0000 C   0  0  0  0  0  0  0  0  0  0  0  0
    2.4454   -2.9684    0.0000 C   0  0  0  0  0  0  0  0  0  0  0  0
    2.0329   -2.2539    0.0000 C   0  0  2  0  0  0  0  0  0  0  0  0
    1.2079   -2.2539    0.0000 N   0  0  0  0  0  0  0  0  0  0  0  0
    0.7954   -2.9684    0.0000 C   0  0  0  0  0  0  0  0  0  0  0  0
   -0.0296   -2.9684    0.0000 C   0  0  0  0  0  0  0  0  0  0  0  0
   -0.4421   -2.2539    0.0000 C   0  0  0  0  0  0  0  0  0  0  0  0
   -1.2671   -2.2539    0.0000 C   0  0  0  0  0  0  0  0  0  0  0  0
   -1.6796   -2.9684    0.0000 C   0  0  0  0  0  0  0  0  0  0  0  0
   -1.2671   -3.6829    0.0000 F   0  0  0  0  0  0  0  0  0  0  0  0
   -2.5046   -2.9684    0.0000 C   0  0  0  0  0  0  0  0  0  0  0  0
   -2.9171   -2.2539    0.0000 C   0  0  0  0  0  0  0  0  0  0  0  0
   -2.5046   -1.5395    0.0000 C   0  0  0  0  0  0  0  0  0  0  0  0
   -2.9171   -0.8250    0.0000 Cl  0  0  0  0  0  0  0  0  0  0  0  0
   -1.6796   -1.5395    0.0000 C   0  0  0  0  0  0  0  0  0  0  0  0
   -1.2671   -0.8250    0.0000 F   0  0  0  0  0  0  0  0  0  0  0  0
   -0.0296   -1.5395    0.0000 C   0  0  0  0  0  0  0  0  0  0  0  0
    0.7954   -1.5395    0.0000 C   0  0  0  0  0  0  0  0  0  0  0  0
    1.2079   -0.8250    0.0000 O   0  0  0  0  0  0  0  0  0  0  0  0
    2.4454   -1.5395    0.0000 C   0  0  0  0  0  0  0  0  0  0  0  0
    3.2704   -1.5395    0.0000 C   0  0  0  0  0  0  0  0  0  0  0  0
    3.6829   -0.8250    0.0000 C   0  0  0  0  0  0  0  0  0  0  0  0
    3.2704   -0.1105    0.0000 C   0  0  0  0  0  0  0  0  0  0  0  0
    2.4454   -0.1105    0.0000 C   0  0  0  0  0  0  0  0  0  0  0  0
    2.0329   -0.8250    0.0000 N   0  0  0  0  0  0  0  0  0  0  0  0
    8.2204   -1.5395    0.0000 O   0  0  0  0  0  0  0  0  0  0  0  0
    8.6329   -2.2539    0.0000 C   0  0  2  0  0  0  0  0  0  0  0  0
    9.4579   -2.2539    0.0000 C   0  0  0  0  0  0  0  0  0  0  0  0
    9.8704   -2.9684    0.0000 O   0  0  0  0  0  0  0  0  0  0  0  0
    8.2204   -2.9684    0.0000 C   0  0  1  0  0  0  0  0  0  0  0  0
    8.6329   -3.6829    0.0000 O   0  0  0  0  0  0  0  0  0  0  0  0
  1  2  1  0  0  0  0
  3  2  1  6  0  0  0
  3  4  1  0  0  0  0
  4  5  1  1  0  0  0
  4  6  1  0  0  0  0
  6  7  1  0  0  0  0
  7  8  1  0  0  0  0
  8  9  4  0  0  0  0
  9 10  4  0  0  0  0
 10 11  4  0  0  0  0
 11 12  4  0  0  0  0
 12 13  4  0  0  0  0
  8 13  4  0  0  0  0
 12 14  1  0  0  0  0
 14 15  1  0  0  0  0
 15 16  2  0  0  0  0
 15 17  1  0  0  0  0
 17 18  1  6  0  0  0
 17 19  1  0  0  0  0
 19 20  1  0  0  0  0
 20 21  1  0  0  0  0
 21 22  1  0  0  0  0
 22 23  1  6  0  0  0
 23 24  1  0  0  0  0
 24 25  1  0  0  0  0
 25 26  1  0  0  0  0
 26 27  1  0  0  0  0
 27 28  4  0  0  0  0
 28 29  1  0  0  0  0
 28 30  4  0  0  0  0
 30 31  4  0  0  0  0
 31 32  4  0  0  0  0
 32 33  1  0  0  0  0
 32 34  4  0  0  0  0
 27 34  4  0  0  0  0
 34 35  1  0  0  0  0
 26 36  2  0  0  0  0
 36 37  1  0  0  0  0
 23 37  1  0  0  0  0
 37 38  2  0  0  0  0
 22 39  1  0  0  0  0
 39 40  4  0  0  0  0
 40 41  4  0  0  0  0
 11 41  1  0  0  0  0
 41 42  4  0  0  0  0
 42 43  4  0  0  0  0
 43 44  4  0  0  0  0
 39 44  4  0  0  0  0
  6 45  1  0  0  0  0
 45 46  1  0  0  0  0
 46 47  1  6  0  0  0
 47 48  1  0  0  0  0
 46 49  1  0  0  0  0
  3 49  1  0  0  0  0
 49 50  1  1  0  0  0
M  END
>  <CdId>
358652

>  <Mol Weight>
713.167

>  <Formula>
C36H39ClF2N4O7

>  <cmpd_chemblid>
CHEMBL4109128

>  <std_type>
Ki

>  <std_value>
8.29

>  <std_unit>
nM

>  <target_id>
CHEMBL2016

>  <target_name>
Coagulation factor IX

>  <organism>
Homo sapiens

>  <target_type>
SINGLE PROTEIN

$$$$

  Mrv0541 08052111042D          

 43 47  0  0  1  0            999 V2000
    1.4289   -2.4750    0.0000 N   0  0  0  0  0  0  0  0  0  0  0  0
    1.4289   -1.6500    0.0000 C   0  0  0  0  0  0  0  0  0  0  0  0
    0.7145   -1.2375    0.0000 N   0  0  0  0  0  0  0  0  0  0  0  0
    0.7145   -0.4125    0.0000 C   0  0  0  0  0  0  0  0  0  0  0  0
    1.4289    0.0000    0.0000 C   0  0  0  0  0  0  0  0  0  0  0  0
    2.1434   -0.4125    0.0000 C   0  0  0  0  0  0  0  0  0  0  0  0
    2.8579    0.0000    0.0000 C   0  0  0  0  0  0  0  0  0  0  0  0
    3.5724   -0.4125    0.0000 C   0  0  0  0  0  0  0  0  0  0  0  0
    4.2868   -0.0000    0.0000 C   0  0  0  0  0  0  0  0  0  0  0  0
    4.2868    0.8250    0.0000 C   0  0  2  0  0  0  0  0  0  0  0  0
    3.5724    1.2375    0.0000 C   0  0  0  0  0  0  0  0  0  0  0  0
    2.8579    0.8250    0.0000 O   0  0  0  0  0  0  0  0  0  0  0  0
    3.5724    2.0625    0.0000 O   0  0  0  0  0  0  0  0  0  0  0  0
    5.0013    1.2375    0.0000 N   0  0  0  0  0  0  0  0  0  0  0  0
    5.0875    2.0580    0.0000 C   0  0  0  0  0  0  0  0  0  0  0  0
    5.8945    2.2295    0.0000 C   0  0  0  0  0  0  0  0  0  0  0  0
    6.3070    1.5150    0.0000 C   0  0  2  0  0  0  0  0  0  0  0  0
    7.1275    1.4288    0.0000 N   0  0  0  0  0  0  0  0  0  0  0  0
    7.6124    2.0962    0.0000 S   0  0  0  0  0  0  0  0  0  0  0  0
    8.2798    1.6113    0.0000 O   0  0  0  0  0  0  0  0  0  0  0  0
    6.9450    2.5812    0.0000 O   0  0  0  0  0  0  0  0  0  0  0  0
    8.0973    2.7637    0.0000 C   0  0  0  0  0  0  0  0  0  0  0  0
    7.8424    3.5483    0.0000 C   0  0  0  0  0  0  0  0  0  0  0  0
    8.5098    4.0332    0.0000 N   0  0  0  0  0  0  0  0  0  0  0  0
    9.1773    3.5483    0.0000 C   0  0  0  0  0  0  0  0  0  0  0  0
    9.9619    3.8032    0.0000 N   0  0  0  0  0  0  0  0  0  0  0  0
   10.2168    4.5879    0.0000 C   0  0  0  0  0  0  0  0  0  0  0  0
   11.0418    4.5879    0.0000 C   0  0  0  0  0  0  0  0  0  0  0  0
   11.2968    3.8032    0.0000 C   0  0  0  0  0  0  0  0  0  0  0  0
   12.0504    4.1388    0.0000 F   0  0  0  0  0  0  0  0  0  0  0  0
   11.7093    3.0888    0.0000 F   0  0  0  0  0  0  0  0  0  0  0  0
   10.6293    3.3183    0.0000 C   0  0  0  0  0  0  0  0  0  0  0  0
    8.9223    2.7637    0.0000 S   0  0  0  0  0  0  0  0  0  0  0  0
    5.7550    0.9019    0.0000 C   0  0  0  0  0  0  0  0  0  0  0  0
    5.9265    0.0950    0.0000 O   0  0  0  0  0  0  0  0  0  0  0  0
    3.5724   -1.2375    0.0000 C   0  0  0  0  0  0  0  0  0  0  0  0
    4.2868   -1.6500    0.0000 O   0  0  0  0  0  0  0  0  0  0  0  0
    4.2868   -2.4750    0.0000 C   0  0  0  0  0  0  0  0  0  0  0  0
    3.4618   -2.4750    0.0000 F   0  0  0  0  0  0  0  0  0  0  0  0
    5.1118   -2.4750    0.0000 F   0  0  0  0  0  0  0  0  0  0  0  0
    4.2868   -3.3000    0.0000 F   0  0  0  0  0  0  0  0  0  0  0  0
    2.8579   -1.6500    0.0000 C   0  0  0  0  0  0  0  0  0  0  0  0
    2.1434   -1.2375    0.0000 C   0  0  0  0  0  0  0  0  0  0  0  0
  1  2  1  0  0  0  0
  2  3  4  0  0  0  0
  3  4  4  0  0  0  0
  4  5  4  0  0  0  0
  5  6  4  0  0  0  0
  6  7  4  0  0  0  0
  7  8  4  0  0  0  0
  8  9  1  0  0  0  0
  9 10  1  0  0  0  0
 10 11  1  0  0  0  0
 11 12  2  0  0  0  0
 11 13  1  0  0  0  0
 10 14  1  6  0  0  0
 14 15  1  0  0  0  0
 15 16  1  0  0  0  0
 16 17  1  0  0  0  0
 17 18  1  6  0  0  0
 18 19  1  0  0  0  0
 19 20  2  0  0  0  0
 19 21  2  0  0  0  0
 19 22  1  0  0  0  0
 22 23  4  0  0  0  0
 23 24  4  0  0  0  0
 24 25  4  0  0  0  0
 25 26  1  0  0  0  0
 26 27  1  0  0  0  0
 27 28  1  0  0  0  0
 28 29  1  0  0  0  0
 29 30  1  0  0  0  0
 29 31  1  0  0  0  0
 29 32  1  0  0  0  0
 26 32  1  0  0  0  0
 25 33  4  0  0  0  0
 22 33  4  0  0  0  0
 17 34  1  0  0  0  0
 14 34  1  0  0  0  0
 34 35  2  0  0  0  0
  8 36  4  0  0  0  0
 36 37  1  0  0  0  0
 37 38  1  0  0  0  0
 38 39  1  0  0  0  0
 38 40  1  0  0  0  0
 38 41  1  0  0  0  0
 36 42  4  0  0  0  0
 42 43  4  0  0  0  0
  2 43  4  0  0  0  0
  6 43  4  0  0  0  0
M  END
>  <CdId>
358654

>  <Mol Weight>
650.598

>  <Formula>
C24H23F5N6O6S2

>  <cmpd_chemblid>
CHEMBL3914586

>  <std_type>
Ki

>  <std_value>
38.0

>  <std_unit>
nM

>  <target_id>
CHEMBL2016

>  <target_name>
Coagulation factor IX

>  <organism>
Homo sapiens

>  <target_type>
SINGLE PROTEIN

$$$$

  Mrv0541 08052111042D          

 37 41  0  0  0  0            999 V2000
    4.2010   -5.1401    0.0000 N   0  0  0  0  0  0  0  0  0  0  0  0
    3.3760   -5.1401    0.0000 C   0  0  0  0  0  0  0  0  0  0  0  0
    2.9635   -4.4256    0.0000 N   0  0  0  0  0  0  0  0  0  0  0  0
    2.9635   -5.8546    0.0000 C   0  0  0  0  0  0  0  0  0  0  0  0
    3.3760   -6.5690    0.0000 C   0  0  0  0  0  0  0  0  0  0  0  0
    2.9635   -7.2835    0.0000 C   0  0  0  0  0  0  0  0  0  0  0  0
    2.1385   -7.2835    0.0000 C   0  0  0  0  0  0  0  0  0  0  0  0
    1.7260   -6.5690    0.0000 C   0  0  0  0  0  0  0  0  0  0  0  0
    0.9010   -6.5690    0.0000 N   0  0  0  0  0  0  0  0  0  0  0  0
    0.4161   -7.2365    0.0000 N   0  0  0  0  0  0  0  0  0  0  0  0
   -0.3686   -6.9815    0.0000 C   0  0  0  0  0  0  0  0  0  0  0  0
   -1.0360   -7.4664    0.0000 C   0  0  0  0  0  0  0  0  0  0  0  0
   -1.7034   -7.9514    0.0000 F   0  0  0  0  0  0  0  0  0  0  0  0
   -1.5209   -6.7990    0.0000 F   0  0  0  0  0  0  0  0  0  0  0  0
   -0.5511   -8.1339    0.0000 F   0  0  0  0  0  0  0  0  0  0  0  0
   -0.3686   -6.1565    0.0000 C   0  0  0  0  0  0  0  0  0  0  0  0
    0.4161   -5.9016    0.0000 C   0  0  0  0  0  0  0  0  0  0  0  0
    0.6710   -5.1170    0.0000 C   0  0  0  0  0  0  0  0  0  0  0  0
    1.4780   -4.9454    0.0000 O   0  0  0  0  0  0  0  0  0  0  0  0
    0.1190   -4.5039    0.0000 N   0  0  0  0  0  0  0  0  0  0  0  0
    0.3739   -3.7192    0.0000 C   0  0  0  0  0  0  0  0  0  0  0  0
   -0.1781   -3.1062    0.0000 C   0  0  0  0  0  0  0  0  0  0  0  0
    0.0768   -2.3215    0.0000 C   0  0  0  0  0  0  0  0  0  0  0  0
    0.8838   -2.1500    0.0000 C   0  0  0  0  0  0  0  0  0  0  0  0
    1.1387   -1.3654    0.0000 N   0  0  0  0  0  0  0  0  0  0  0  0
    0.6538   -0.6979    0.0000 C   0  0  0  0  0  0  0  0  0  0  0  0
    1.1387   -0.0305    0.0000 N   0  0  0  0  0  0  0  0  0  0  0  0
    1.9233   -0.2854    0.0000 C   0  0  0  0  0  0  0  0  0  0  0  0
    2.6378    0.1271    0.0000 C   0  0  0  0  0  0  0  0  0  0  0  0
    3.3523   -0.2854    0.0000 C   0  0  0  0  0  0  0  0  0  0  0  0
    3.3523   -1.1104    0.0000 C   0  0  0  0  0  0  0  0  0  0  0  0
    2.6378   -1.5229    0.0000 C   0  0  0  0  0  0  0  0  0  0  0  0
    1.9233   -1.1104    0.0000 C   0  0  0  0  0  0  0  0  0  0  0  0
    1.4358   -2.7631    0.0000 C   0  0  0  0  0  0  0  0  0  0  0  0
    1.1809   -3.5477    0.0000 C   0  0  0  0  0  0  0  0  0  0  0  0
    1.7329   -4.1608    0.0000 F   0  0  0  0  0  0  0  0  0  0  0  0
    2.1385   -5.8546    0.0000 C   0  0  0  0  0  0  0  0  0  0  0  0
  1  2  2  0  0  0  0
  2  3  1  0  0  0  0
  2  4  1  0  0  0  0
  4  5  4  0  0  0  0
  5  6  4  0  0  0  0
  6  7  4  0  0  0  0
  7  8  4  0  0  0  0
  8  9  1  0  0  0  0
  9 10  4  0  0  0  0
 10 11  4  0  0  0  0
 11 12  1  0  0  0  0
 12 13  1  0  0  0  0
 12 14  1  0  0  0  0
 12 15  1  0  0  0  0
 11 16  4  0  0  0  0
 16 17  4  0  0  0  0
  9 17  4  0  0  0  0
 17 18  1  0  0  0  0
 18 19  2  0  0  0  0
 18 20  1  0  0  0  0
 20 21  1  0  0  0  0
 21 22  4  0  0  0  0
 22 23  4  0  0  0  0
 23 24  4  0  0  0  0
 24 25  1  0  0  0  0
 25 26  4  0  0  0  0
 26 27  4  0  0  0  0
 27 28  4  0  0  0  0
 28 29  4  0  0  0  0
 29 30  4  0  0  0  0
 30 31  4  0  0  0  0
 31 32  4  0  0  0  0
 32 33  4  0  0  0  0
 28 33  4  0  0  0  0
 25 33  4  0  0  0  0
 24 34  4  0  0  0  0
 34 35  4  0  0  0  0
 21 35  4  0  0  0  0
 35 36  1  0  0  0  0
  8 37  4  0  0  0  0
  4 37  4  0  0  0  0
M  END
>  <CdId>
358655

>  <Mol Weight>
507.4424

>  <Formula>
C25H17F4N7O

>  <cmpd_chemblid>
CHEMBL183682

>  <std_type>
Ki

>  <std_value>
13.0

>  <std_unit>
nM

>  <target_id>
CHEMBL2016

>  <target_name>
Coagulation factor IX

>  <organism>
Homo sapiens

>  <target_type>
SINGLE PROTEIN

$$$$

  Mrv0541 08052111042D          

 41 45  0  0  1  0            999 V2000
    8.6329   -2.2539    0.0000 C   0  0  0  0  0  0  0  0  0  0  0  0
    8.2204   -1.5395    0.0000 O   0  0  0  0  0  0  0  0  0  0  0  0
    7.3954   -1.5395    0.0000 C   0  0  0  0  0  0  0  0  0  0  0  0
    6.9829   -2.2539    0.0000 O   0  0  0  0  0  0  0  0  0  0  0  0
    6.9829   -0.8250    0.0000 N   0  0  0  0  0  0  0  0  0  0  0  0
    6.1579   -0.8250    0.0000 C   0  0  0  0  0  0  0  0  0  0  0  0
    5.7454   -0.1105    0.0000 C   0  0  0  0  0  0  0  0  0  0  0  0
    4.9204   -0.1105    0.0000 C   0  0  0  0  0  0  0  0  0  0  0  0
    4.5079   -0.8250    0.0000 C   0  0  0  0  0  0  0  0  0  0  0  0
    4.9204   -1.5395    0.0000 C   0  0  0  0  0  0  0  0  0  0  0  0
    5.7454   -1.5395    0.0000 C   0  0  0  0  0  0  0  0  0  0  0  0
    4.5079   -2.2539    0.0000 N   0  0  0  0  0  0  0  0  0  0  0  0
    4.9204   -2.9684    0.0000 C   0  0  0  0  0  0  0  0  0  0  0  0
    5.7454   -2.9684    0.0000 O   0  0  0  0  0  0  0  0  0  0  0  0
    4.5079   -3.6829    0.0000 C   0  0  2  0  0  0  0  0  0  0  0  0
    4.9204   -4.3974    0.0000 C   0  0  0  0  0  0  0  0  0  0  0  0
    3.6829   -3.6829    0.0000 C   0  0  0  0  0  0  0  0  0  0  0  0
    3.2704   -2.9684    0.0000 C   0  0  0  0  0  0  0  0  0  0  0  0
    2.4454   -2.9684    0.0000 C   0  0  0  0  0  0  0  0  0  0  0  0
    2.0329   -2.2539    0.0000 C   0  0  2  0  0  0  0  0  0  0  0  0
    1.2079   -2.2539    0.0000 N   0  0  0  0  0  0  0  0  0  0  0  0
    0.7954   -2.9684    0.0000 C   0  0  0  0  0  0  0  0  0  0  0  0
   -0.0296   -2.9684    0.0000 C   0  0  0  0  0  0  0  0  0  0  0  0
   -0.4421   -2.2539    0.0000 C   0  0  0  0  0  0  0  0  0  0  0  0
   -1.2671   -2.2539    0.0000 C   0  0  0  0  0  0  0  0  0  0  0  0
   -1.6796   -2.9684    0.0000 C   0  0  0  0  0  0  0  0  0  0  0  0
   -2.5046   -2.9684    0.0000 C   0  0  0  0  0  0  0  0  0  0  0  0
   -2.9171   -2.2539    0.0000 C   0  0  0  0  0  0  0  0  0  0  0  0
   -2.5046   -1.5395    0.0000 C   0  0  0  0  0  0  0  0  0  0  0  0
   -2.9171   -0.8250    0.0000 Cl  0  0  0  0  0  0  0  0  0  0  0  0
   -1.6796   -1.5395    0.0000 C   0  0  0  0  0  0  0  0  0  0  0  0
   -1.2671   -0.8250    0.0000 C   0  0  0  0  0  0  0  0  0  0  0  0
   -0.0296   -1.5395    0.0000 C   0  0  0  0  0  0  0  0  0  0  0  0
    0.7954   -1.5395    0.0000 C   0  0  0  0  0  0  0  0  0  0  0  0
    1.2079   -0.8250    0.0000 O   0  0  0  0  0  0  0  0  0  0  0  0
    2.4454   -1.5395    0.0000 C   0  0  0  0  0  0  0  0  0  0  0  0
    3.2704   -1.5395    0.0000 C   0  0  0  0  0  0  0  0  0  0  0  0
    3.6829   -0.8250    0.0000 C   0  0  0  0  0  0  0  0  0  0  0  0
    3.2704   -0.1105    0.0000 C   0  0  0  0  0  0  0  0  0  0  0  0
    2.4454   -0.1105    0.0000 C   0  0  0  0  0  0  0  0  0  0  0  0
    2.0329   -0.8250    0.0000 N   0  0  0  0  0  0  0  0  0  0  0  0
  1  2  1  0  0  0  0
  2  3  1  0  0  0  0
  3  4  2  0  0  0  0
  3  5  1  0  0  0  0
  5  6  1  0  0  0  0
  6  7  4  0  0  0  0
  7  8  4  0  0  0  0
  8  9  4  0  0  0  0
  9 10  4  0  0  0  0
 10 11  4  0  0  0  0
  6 11  4  0  0  0  0
 10 12  1  0  0  0  0
 12 13  1  0  0  0  0
 13 14  2  0  0  0  0
 13 15  1  0  0  0  0
 15 16  1  6  0  0  0
 15 17  1  0  0  0  0
 17 18  1  0  0  0  0
 18 19  1  0  0  0  0
 19 20  1  0  0  0  0
 20 21  1  6  0  0  0
 21 22  1  0  0  0  0
 22 23  1  0  0  0  0
 23 24  1  0  0  0  0
 24 25  1  0  0  0  0
 25 26  4  0  0  0  0
 26 27  4  0  0  0  0
 27 28  4  0  0  0  0
 28 29  4  0  0  0  0
 29 30  1  0  0  0  0
 29 31  4  0  0  0  0
 25 31  4  0  0  0  0
 31 32  1  0  0  0  0
 24 33  2  0  0  0  0
 33 34  1  0  0  0  0
 21 34  1  0  0  0  0
 34 35  2  0  0  0  0
 20 36  1  0  0  0  0
 36 37  4  0  0  0  0
 37 38  4  0  0  0  0
  9 38  1  0  0  0  0
 38 39  4  0  0  0  0
 39 40  4  0  0  0  0
 40 41  4  0  0  0  0
 36 41  4  0  0  0  0
M  END
>  <CdId>
358656

>  <Mol Weight>
573.082

>  <Formula>
C32H33ClN4O4

>  <cmpd_chemblid>
CHEMBL4114507

>  <std_type>
Ki

>  <std_value>
146.5

>  <std_unit>
nM

>  <target_id>
CHEMBL2016

>  <target_name>
Coagulation factor IX

>  <organism>
Homo sapiens

>  <target_type>
SINGLE PROTEIN

$$$$

  Mrv0541 08052111042D          

 39 43  0  0  1  0            999 V2000
    3.9849    3.9849    0.0000 C   0  0  0  0  0  0  0  0  0  0  0  0
    4.3974    3.2704    0.0000 C   0  0  2  0  0  0  0  0  0  0  0  0
    5.2224    3.2704    0.0000 C   0  0  0  0  0  0  0  0  0  0  0  0
    5.6349    2.5559    0.0000 C   0  0  0  0  0  0  0  0  0  0  0  0
    6.4599    2.5559    0.0000 C   0  0  0  0  0  0  0  0  0  0  0  0
    6.8724    1.8414    0.0000 C   0  0  2  0  0  0  0  0  0  0  0  0
    7.6974    1.8414    0.0000 N   0  0  0  0  0  0  0  0  0  0  0  0
    8.1099    2.5559    0.0000 C   0  0  0  0  0  0  0  0  0  0  0  0
    8.9349    2.5559    0.0000 C   0  0  0  0  0  0  0  0  0  0  0  0
    9.3474    1.8414    0.0000 C   0  0  0  0  0  0  0  0  0  0  0  0
   10.1724    1.8414    0.0000 C   0  0  0  0  0  0  0  0  0  0  0  0
   10.5849    2.5559    0.0000 C   0  0  0  0  0  0  0  0  0  0  0  0
   10.1724    3.2704    0.0000 C   0  0  0  0  0  0  0  0  0  0  0  0
    9.7599    3.9849    0.0000 N   0  0  0  0  0  0  0  0  0  0  0  0
   11.4099    2.5559    0.0000 C   0  0  0  0  0  0  0  0  0  0  0  0
   11.8224    1.8414    0.0000 C   0  0  0  0  0  0  0  0  0  0  0  0
   11.4099    1.1270    0.0000 C   0  0  0  0  0  0  0  0  0  0  0  0
   11.8224    0.4125    0.0000 Cl  0  0  0  0  0  0  0  0  0  0  0  0
   10.5849    1.1270    0.0000 C   0  0  0  0  0  0  0  0  0  0  0  0
   10.1724    0.4125    0.0000 F   0  0  0  0  0  0  0  0  0  0  0  0
    8.9349    1.1270    0.0000 C   0  0  0  0  0  0  0  0  0  0  0  0
    8.1099    1.1270    0.0000 C   0  0  0  0  0  0  0  0  0  0  0  0
    7.6974    0.4125    0.0000 O   0  0  0  0  0  0  0  0  0  0  0  0
    6.4599    1.1270    0.0000 C   0  0  0  0  0  0  0  0  0  0  0  0
    5.6349    1.1270    0.0000 C   0  0  0  0  0  0  0  0  0  0  0  0
    5.2224    0.4125    0.0000 C   0  0  0  0  0  0  0  0  0  0  0  0
    5.6349   -0.3020    0.0000 C   0  0  0  0  0  0  0  0  0  0  0  0
    6.4599   -0.3020    0.0000 C   0  0  0  0  0  0  0  0  0  0  0  0
    6.8724    0.4125    0.0000 N   0  0  0  0  0  0  0  0  0  0  0  0
    4.3974    0.4125    0.0000 C   0  0  0  0  0  0  0  0  0  0  0  0
    3.9849   -0.3020    0.0000 C   0  0  0  0  0  0  0  0  0  0  0  0
    3.1599   -0.3020    0.0000 C   0  0  0  0  0  0  0  0  0  0  0  0
    2.7474   -1.0164    0.0000 F   0  0  0  0  0  0  0  0  0  0  0  0
    2.7474    0.4125    0.0000 C   0  0  0  0  0  0  0  0  0  0  0  0
    3.1599    1.1270    0.0000 C   0  0  0  0  0  0  0  0  0  0  0  0
    3.9849    1.1270    0.0000 C   0  0  0  0  0  0  0  0  0  0  0  0
    4.3974    1.8414    0.0000 N   0  0  0  0  0  0  0  0  0  0  0  0
    3.9849    2.5559    0.0000 C   0  0  0  0  0  0  0  0  0  0  0  0
    3.1599    2.5559    0.0000 O   0  0  0  0  0  0  0  0  0  0  0  0
  2  1  1  6  0  0  0
  2  3  1  0  0  0  0
  3  4  1  0  0  0  0
  4  5  1  0  0  0  0
  5  6  1  0  0  0  0
  6  7  1  6  0  0  0
  7  8  1  0  0  0  0
  8  9  1  0  0  0  0
  9 10  1  0  0  0  0
 10 11  1  0  0  0  0
 11 12  4  0  0  0  0
 12 13  1  0  0  0  0
 13 14  3  0  0  0  0
 12 15  4  0  0  0  0
 15 16  4  0  0  0  0
 16 17  4  0  0  0  0
 17 18  1  0  0  0  0
 17 19  4  0  0  0  0
 11 19  4  0  0  0  0
 19 20  1  0  0  0  0
 10 21  2  0  0  0  0
 21 22  1  0  0  0  0
  7 22  1  0  0  0  0
 22 23  2  0  0  0  0
  6 24  1  0  0  0  0
 24 25  4  0  0  0  0
 25 26  4  0  0  0  0
 26 27  4  0  0  0  0
 27 28  4  0  0  0  0
 28 29  4  0  0  0  0
 24 29  4  0  0  0  0
 26 30  1  0  0  0  0
 30 31  4  0  0  0  0
 31 32  4  0  0  0  0
 32 33  1  0  0  0  0
 32 34  4  0  0  0  0
 34 35  4  0  0  0  0
 35 36  4  0  0  0  0
 30 36  4  0  0  0  0
 36 37  1  0  0  0  0
 37 38  1  0  0  0  0
  2 38  1  0  0  0  0
 38 39  2  0  0  0  0
M  END
>  <CdId>
358657

>  <Mol Weight>
546.995

>  <Formula>
C30H25ClF2N4O2

>  <cmpd_chemblid>
CHEMBL4110267

>  <std_type>
Ki

>  <std_value>
0.99

>  <std_unit>
nM

>  <target_id>
CHEMBL2016

>  <target_name>
Coagulation factor IX

>  <organism>
Homo sapiens

>  <target_type>
SINGLE PROTEIN

$$$$

  Mrv0541 08052111042D          

 38 41  0  0  1  0            999 V2000
    1.4289    2.4750    0.0000 C   0  0  0  0  0  0  0  0  0  0  0  0
    0.7145    2.0625    0.0000 O   0  0  0  0  0  0  0  0  0  0  0  0
    0.7145    1.2375    0.0000 C   0  0  0  0  0  0  0  0  0  0  0  0
    1.4289    0.8250    0.0000 O   0  0  0  0  0  0  0  0  0  0  0  0
    0.0000    0.8250    0.0000 C   0  0  1  0  0  0  0  0  0  0  0  0
    0.0000    0.0000    0.0000 C   0  0  0  0  0  0  0  0  0  0  0  0
    0.7145   -0.4125    0.0000 C   0  0  0  0  0  0  0  0  0  0  0  0
    1.4289    0.0000    0.0000 C   0  0  0  0  0  0  0  0  0  0  0  0
    2.1434   -0.4125    0.0000 C   0  0  0  0  0  0  0  0  0  0  0  0
    2.8579    0.0000    0.0000 C   0  0  0  0  0  0  0  0  0  0  0  0
    3.5724   -0.4125    0.0000 C   0  0  0  0  0  0  0  0  0  0  0  0
    3.5724   -1.2375    0.0000 N   0  0  0  0  0  0  0  0  0  0  0  0
    2.8579   -1.6500    0.0000 C   0  0  0  0  0  0  0  0  0  0  0  0
    2.8579   -2.4750    0.0000 N   0  0  0  0  0  0  0  0  0  0  0  0
    2.1434   -1.2375    0.0000 C   0  0  0  0  0  0  0  0  0  0  0  0
    1.4289   -1.6500    0.0000 C   0  0  0  0  0  0  0  0  0  0  0  0
    0.7145   -1.2375    0.0000 C   0  0  0  0  0  0  0  0  0  0  0  0
    0.0000   -1.6500    0.0000 F   0  0  0  0  0  0  0  0  0  0  0  0
   -0.7145    1.2375    0.0000 N   0  0  0  0  0  0  0  0  0  0  0  0
   -1.4681    0.9019    0.0000 C   0  0  0  0  0  0  0  0  0  0  0  0
   -2.0202    1.5150    0.0000 C   0  0  0  0  0  0  0  0  0  0  0  0
   -1.6077    2.2295    0.0000 C   0  0  2  0  0  0  0  0  0  0  0  0
   -1.9432    2.9832    0.0000 N   0  0  0  0  0  0  0  0  0  0  0  0
   -1.4583    3.6506    0.0000 S   0  0  0  0  0  0  0  0  0  0  0  0
   -0.7909    3.1657    0.0000 O   0  0  0  0  0  0  0  0  0  0  0  0
   -2.1258    4.1355    0.0000 O   0  0  0  0  0  0  0  0  0  0  0  0
   -0.9734    4.3181    0.0000 C   0  0  0  0  0  0  0  0  0  0  0  0
   -1.3089    5.0717    0.0000 C   0  0  0  0  0  0  0  0  0  0  0  0
   -0.8240    5.7392    0.0000 N   0  0  0  0  0  0  0  0  0  0  0  0
   -0.0035    5.6529    0.0000 C   0  0  0  0  0  0  0  0  0  0  0  0
    0.4814    6.3204    0.0000 N   0  0  0  0  0  0  0  0  0  0  0  0
    0.1458    7.0741    0.0000 C   0  0  0  0  0  0  0  0  0  0  0  0
    1.3019    6.2341    0.0000 C   0  0  0  0  0  0  0  0  0  0  0  0
    0.3320    4.8993    0.0000 C   0  0  0  0  0  0  0  0  0  0  0  0
    1.1525    4.8130    0.0000 Cl  0  0  0  0  0  0  0  0  0  0  0  0
   -0.1529    4.2318    0.0000 C   0  0  0  0  0  0  0  0  0  0  0  0
   -0.8007    2.0580    0.0000 C   0  0  0  0  0  0  0  0  0  0  0  0
   -0.1876    2.6100    0.0000 O   0  0  0  0  0  0  0  0  0  0  0  0
  1  2  1  0  0  0  0
  2  3  1  0  0  0  0
  3  4  2  0  0  0  0
  3  5  1  0  0  0  0
  5  6  1  0  0  0  0
  6  7  1  0  0  0  0
  7  8  4  0  0  0  0
  8  9  4  0  0  0  0
  9 10  4  0  0  0  0
 10 11  4  0  0  0  0
 11 12  4  0  0  0  0
 12 13  4  0  0  0  0
 13 14  1  0  0  0  0
 13 15  4  0  0  0  0
  9 15  4  0  0  0  0
 15 16  4  0  0  0  0
 16 17  4  0  0  0  0
  7 17  4  0  0  0  0
 17 18  1  0  0  0  0
  5 19  1  1  0  0  0
 19 20  1  0  0  0  0
 20 21  1  0  0  0  0
 21 22  1  0  0  0  0
 22 23  1  6  0  0  0
 23 24  1  0  0  0  0
 24 25  2  0  0  0  0
 24 26  2  0  0  0  0
 24 27  1  0  0  0  0
 27 28  4  0  0  0  0
 28 29  4  0  0  0  0
 29 30  4  0  0  0  0
 30 31  1  0  0  0  0
 31 32  1  0  0  0  0
 31 33  1  0  0  0  0
 30 34  4  0  0  0  0
 34 35  1  0  0  0  0
 34 36  4  0  0  0  0
 27 36  4  0  0  0  0
 22 37  1  0  0  0  0
 19 37  1  0  0  0  0
 37 38  2  0  0  0  0
M  END
>  <CdId>
358658

>  <Mol Weight>
565.017

>  <Formula>
C24H26ClFN6O5S

>  <cmpd_chemblid>
CHEMBL3892704

>  <std_type>
Ki

>  <std_value>
335.0

>  <std_unit>
nM

>  <target_id>
CHEMBL2016

>  <target_name>
Coagulation factor IX

>  <organism>
Homo sapiens

>  <target_type>
SINGLE PROTEIN

$$$$

  Mrv0541 08052111042D          

 41 46  0  0  1  0            999 V2000
    3.9849    3.9849    0.0000 C   0  0  0  0  0  0  0  0  0  0  0  0
    4.3974    3.2704    0.0000 C   0  0  2  0  0  0  0  0  0  0  0  0
    5.2224    3.2704    0.0000 C   0  0  0  0  0  0  0  0  0  0  0  0
    5.6349    2.5559    0.0000 C   0  0  0  0  0  0  0  0  0  0  0  0
    6.4599    2.5559    0.0000 C   0  0  0  0  0  0  0  0  0  0  0  0
    6.8724    1.8414    0.0000 C   0  0  2  0  0  0  0  0  0  0  0  0
    7.6974    1.8414    0.0000 N   0  0  0  0  0  0  0  0  0  0  0  0
    8.1099    2.5559    0.0000 C   0  0  0  0  0  0  0  0  0  0  0  0
    8.9349    2.5559    0.0000 C   0  0  0  0  0  0  0  0  0  0  0  0
    9.3474    1.8414    0.0000 C   0  0  0  0  0  0  0  0  0  0  0  0
   10.1724    1.8414    0.0000 C   0  0  0  0  0  0  0  0  0  0  0  0
   10.5849    2.5559    0.0000 C   0  0  0  0  0  0  0  0  0  0  0  0
   10.1724    3.2704    0.0000 C   0  0  0  0  0  0  0  0  0  0  0  0
    9.3519    3.3566    0.0000 C   0  0  0  0  0  0  0  0  0  0  0  0
    9.1803    4.1636    0.0000 N   0  0  0  0  0  0  0  0  0  0  0  0
    9.8948    4.5761    0.0000 N   0  0  0  0  0  0  0  0  0  0  0  0
   10.5079    4.0241    0.0000 C   0  0  0  0  0  0  0  0  0  0  0  0
   11.4099    2.5559    0.0000 C   0  0  0  0  0  0  0  0  0  0  0  0
   11.8224    1.8414    0.0000 C   0  0  0  0  0  0  0  0  0  0  0  0
   11.4099    1.1270    0.0000 C   0  0  0  0  0  0  0  0  0  0  0  0
   11.8224    0.4125    0.0000 Cl  0  0  0  0  0  0  0  0  0  0  0  0
   10.5849    1.1270    0.0000 C   0  0  0  0  0  0  0  0  0  0  0  0
   10.1724    0.4125    0.0000 F   0  0  0  0  0  0  0  0  0  0  0  0
    8.9349    1.1270    0.0000 C   0  0  0  0  0  0  0  0  0  0  0  0
    8.1099    1.1270    0.0000 C   0  0  0  0  0  0  0  0  0  0  0  0
    7.6974    0.4125    0.0000 O   0  0  0  0  0  0  0  0  0  0  0  0
    6.4599    1.1270    0.0000 C   0  0  0  0  0  0  0  0  0  0  0  0
    5.6349    1.1270    0.0000 C   0  0  0  0  0  0  0  0  0  0  0  0
    5.2224    0.4125    0.0000 C   0  0  0  0  0  0  0  0  0  0  0  0
    5.6349   -0.3020    0.0000 C   0  0  0  0  0  0  0  0  0  0  0  0
    6.4599   -0.3020    0.0000 C   0  0  0  0  0  0  0  0  0  0  0  0
    6.8724    0.4125    0.0000 N   0  0  0  0  0  0  0  0  0  0  0  0
    4.3974    0.4125    0.0000 C   0  0  0  0  0  0  0  0  0  0  0  0
    3.9849   -0.3020    0.0000 C   0  0  0  0  0  0  0  0  0  0  0  0
    3.1599   -0.3020    0.0000 C   0  0  0  0  0  0  0  0  0  0  0  0
    2.7474    0.4125    0.0000 C   0  0  0  0  0  0  0  0  0  0  0  0
    3.1599    1.1270    0.0000 C   0  0  0  0  0  0  0  0  0  0  0  0
    3.9849    1.1270    0.0000 C   0  0  0  0  0  0  0  0  0  0  0  0
    4.3974    1.8414    0.0000 N   0  0  0  0  0  0  0  0  0  0  0  0
    3.9849    2.5559    0.0000 C   0  0  0  0  0  0  0  0  0  0  0  0
    3.1599    2.5559    0.0000 O   0  0  0  0  0  0  0  0  0  0  0  0
  2  1  1  6  0  0  0
  2  3  1  0  0  0  0
  3  4  1  0  0  0  0
  4  5  1  0  0  0  0
  5  6  1  0  0  0  0
  6  7  1  6  0  0  0
  7  8  1  0  0  0  0
  8  9  1  0  0  0  0
  9 10  1  0  0  0  0
 10 11  1  0  0  0  0
 11 12  4  0  0  0  0
 12 13  1  0  0  0  0
 13 14  4  0  0  0  0
 14 15  4  0  0  0  0
 15 16  4  0  0  0  0
 16 17  4  0  0  0  0
 13 17  4  0  0  0  0
 12 18  4  0  0  0  0
 18 19  4  0  0  0  0
 19 20  4  0  0  0  0
 20 21  1  0  0  0  0
 20 22  4  0  0  0  0
 11 22  4  0  0  0  0
 22 23  1  0  0  0  0
 10 24  2  0  0  0  0
 24 25  1  0  0  0  0
  7 25  1  0  0  0  0
 25 26  2  0  0  0  0
  6 27  1  0  0  0  0
 27 28  4  0  0  0  0
 28 29  4  0  0  0  0
 29 30  4  0  0  0  0
 30 31  4  0  0  0  0
 31 32  4  0  0  0  0
 27 32  4  0  0  0  0
 29 33  1  0  0  0  0
 33 34  4  0  0  0  0
 34 35  4  0  0  0  0
 35 36  4  0  0  0  0
 36 37  4  0  0  0  0
 37 38  4  0  0  0  0
 33 38  4  0  0  0  0
 38 39  1  0  0  0  0
 39 40  1  0  0  0  0
  2 40  1  0  0  0  0
 40 41  2  0  0  0  0
M  STY  1   1 DAT
M  SAL   1  1  16
M  SDT   1 MRV_IMPLICIT_H                                        
M  SDD   1     0.0000    0.0000    DR    ALL  0       0  
M  SED   1 IMPL_H1
M  END
>  <CdId>
358659

>  <Mol Weight>
570.056

>  <Formula>
C32H29ClFN5O2

>  <cmpd_chemblid>
CHEMBL4106609

>  <std_type>
Ki

>  <std_value>
2.73

>  <std_unit>
nM

>  <target_id>
CHEMBL2016

>  <target_name>
Coagulation factor IX

>  <organism>
Homo sapiens

>  <target_type>
SINGLE PROTEIN

$$$$

  Mrv0541 08052111042D          

 28 30  0  0  0  0            999 V2000
    5.0013   -0.4125    0.0000 C   0  0  0  0  0  0  0  0  0  0  0  0
    5.0013   -1.2375    0.0000 C   0  0  0  0  0  0  0  0  0  0  0  0
    5.7158   -1.6500    0.0000 C   0  0  0  0  0  0  0  0  0  0  0  0
    5.7158   -2.4750    0.0000 C   0  0  0  0  0  0  0  0  0  0  0  0
    5.0013   -2.8875    0.0000 C   0  0  0  0  0  0  0  0  0  0  0  0
    5.0013   -3.7125    0.0000 N   0  0  0  0  0  0  0  0  0  0  0  0
    5.7158   -4.1250    0.0000 C   0  0  0  0  0  0  0  0  0  0  0  0
    5.7158   -4.9500    0.0000 C   0  0  0  0  0  0  0  0  0  0  0  0
    5.0013   -5.3625    0.0000 O   0  0  0  0  0  0  0  0  0  0  0  0
    4.2868   -4.9500    0.0000 C   0  0  0  0  0  0  0  0  0  0  0  0
    3.5724   -5.3625    0.0000 C   0  0  0  0  0  0  0  0  0  0  0  0
    3.5724   -6.1875    0.0000 O   0  0  0  0  0  0  0  0  0  0  0  0
    2.8579   -4.9500    0.0000 C   0  0  0  0  0  0  0  0  0  0  0  0
    2.8579   -4.1250    0.0000 O   0  0  0  0  0  0  0  0  0  0  0  0
    2.1434   -5.3625    0.0000 N   0  0  0  0  0  0  0  0  0  0  0  0
    1.4289   -4.9500    0.0000 C   0  0  0  0  0  0  0  0  0  0  0  0
    0.7145   -5.3625    0.0000 C   0  0  0  0  0  0  0  0  0  0  0  0
   -0.0000   -4.9500    0.0000 C   0  0  0  0  0  0  0  0  0  0  0  0
   -0.0000   -4.1250    0.0000 C   0  0  0  0  0  0  0  0  0  0  0  0
   -0.7145   -3.7125    0.0000 C   0  0  0  0  0  0  0  0  0  0  0  0
   -1.4289   -4.1250    0.0000 N   0  0  0  0  0  0  0  0  0  0  0  0
   -0.7145   -2.8875    0.0000 N   0  0  0  0  0  0  0  0  0  0  0  0
    0.7145   -3.7125    0.0000 C   0  0  0  0  0  0  0  0  0  0  0  0
    1.4289   -4.1250    0.0000 C   0  0  0  0  0  0  0  0  0  0  0  0
    4.2868   -4.1250    0.0000 C   0  0  0  0  0  0  0  0  0  0  0  0
    3.5724   -3.7125    0.0000 O   0  0  0  0  0  0  0  0  0  0  0  0
    4.2868   -2.4750    0.0000 C   0  0  0  0  0  0  0  0  0  0  0  0
    4.2868   -1.6500    0.0000 C   0  0  0  0  0  0  0  0  0  0  0  0
  1  2  1  0  0  0  0
  2  3  4  0  0  0  0
  3  4  4  0  0  0  0
  4  5  4  0  0  0  0
  5  6  1  0  0  0  0
  6  7  1  0  0  0  0
  7  8  1  0  0  0  0
  8  9  1  0  0  0  0
  9 10  1  0  0  0  0
 10 11  1  0  0  0  0
 11 12  1  0  0  0  0
 11 13  1  0  0  0  0
 13 14  2  0  0  0  0
 13 15  1  0  0  0  0
 15 16  1  0  0  0  0
 16 17  4  0  0  0  0
 17 18  4  0  0  0  0
 18 19  4  0  0  0  0
 19 20  1  0  0  0  0
 20 21  2  0  0  0  0
 20 22  1  0  0  0  0
 19 23  4  0  0  0  0
 23 24  4  0  0  0  0
 16 24  4  0  0  0  0
 10 25  1  0  0  0  0
  6 25  1  0  0  0  0
 25 26  2  0  0  0  0
  5 27  4  0  0  0  0
 27 28  4  0  0  0  0
  2 28  4  0  0  0  0
M  END
>  <CdId>
358660

>  <Mol Weight>
382.4131

>  <Formula>
C20H22N4O4

>  <cmpd_chemblid>
CHEMBL3658390

>  <std_type>
Ki

>  <std_value>
15.0

>  <std_unit>
nM

>  <target_id>
CHEMBL2016

>  <target_name>
Coagulation factor IX

>  <organism>
Homo sapiens

>  <target_type>
SINGLE PROTEIN

$$$$

  Mrv0541 08052111042D          

 43 47  0  0  1  0            999 V2000
    8.6329   -2.2539    0.0000 C   0  0  0  0  0  0  0  0  0  0  0  0
    8.2204   -1.5395    0.0000 O   0  0  0  0  0  0  0  0  0  0  0  0
    7.3954   -1.5395    0.0000 C   0  0  0  0  0  0  0  0  0  0  0  0
    6.9829   -2.2539    0.0000 O   0  0  0  0  0  0  0  0  0  0  0  0
    6.9829   -0.8250    0.0000 N   0  0  0  0  0  0  0  0  0  0  0  0
    6.1579   -0.8250    0.0000 C   0  0  0  0  0  0  0  0  0  0  0  0
    5.7454   -0.1105    0.0000 C   0  0  0  0  0  0  0  0  0  0  0  0
    4.9204   -0.1105    0.0000 C   0  0  0  0  0  0  0  0  0  0  0  0
    4.5079   -0.8250    0.0000 C   0  0  0  0  0  0  0  0  0  0  0  0
    4.9204   -1.5395    0.0000 C   0  0  0  0  0  0  0  0  0  0  0  0
    5.7454   -1.5395    0.0000 C   0  0  0  0  0  0  0  0  0  0  0  0
    4.5079   -2.2539    0.0000 N   0  0  0  0  0  0  0  0  0  0  0  0
    4.9204   -2.9684    0.0000 C   0  0  0  0  0  0  0  0  0  0  0  0
    5.7454   -2.9684    0.0000 O   0  0  0  0  0  0  0  0  0  0  0  0
    4.5079   -3.6829    0.0000 C   0  0  2  0  0  0  0  0  0  0  0  0
    4.9204   -4.3974    0.0000 C   0  0  0  0  0  0  0  0  0  0  0  0
    3.6829   -3.6829    0.0000 C   0  0  0  0  0  0  0  0  0  0  0  0
    3.2704   -2.9684    0.0000 C   0  0  0  0  0  0  0  0  0  0  0  0
    2.4454   -2.9684    0.0000 C   0  0  0  0  0  0  0  0  0  0  0  0
    2.0329   -2.2539    0.0000 C   0  0  2  0  0  0  0  0  0  0  0  0
    1.2079   -2.2539    0.0000 N   0  0  0  0  0  0  0  0  0  0  0  0
    0.7954   -2.9684    0.0000 C   0  0  0  0  0  0  0  0  0  0  0  0
   -0.0296   -2.9684    0.0000 C   0  0  0  0  0  0  0  0  0  0  0  0
   -0.4421   -2.2539    0.0000 C   0  0  0  0  0  0  0  0  0  0  0  0
   -1.2671   -2.2539    0.0000 C   0  0  0  0  0  0  0  0  0  0  0  0
   -1.6796   -2.9684    0.0000 C   0  0  0  0  0  0  0  0  0  0  0  0
   -1.2671   -3.6829    0.0000 F   0  0  0  0  0  0  0  0  0  0  0  0
   -2.5046   -2.9684    0.0000 C   0  0  0  0  0  0  0  0  0  0  0  0
   -2.9171   -2.2539    0.0000 C   0  0  0  0  0  0  0  0  0  0  0  0
   -2.5046   -1.5395    0.0000 C   0  0  0  0  0  0  0  0  0  0  0  0
   -2.9171   -0.8250    0.0000 Cl  0  0  0  0  0  0  0  0  0  0  0  0
   -1.6796   -1.5395    0.0000 C   0  0  0  0  0  0  0  0  0  0  0  0
   -1.2671   -0.8250    0.0000 F   0  0  0  0  0  0  0  0  0  0  0  0
   -0.0296   -1.5395    0.0000 C   0  0  0  0  0  0  0  0  0  0  0  0
   -0.4421   -0.8250    0.0000 C   0  0  0  0  0  0  0  0  0  0  0  0
    0.7954   -1.5395    0.0000 C   0  0  0  0  0  0  0  0  0  0  0  0
    1.2079   -0.8250    0.0000 O   0  0  0  0  0  0  0  0  0  0  0  0
    2.4454   -1.5395    0.0000 C   0  0  0  0  0  0  0  0  0  0  0  0
    3.2704   -1.5395    0.0000 C   0  0  0  0  0  0  0  0  0  0  0  0
    3.6829   -0.8250    0.0000 C   0  0  0  0  0  0  0  0  0  0  0  0
    3.2704   -0.1105    0.0000 C   0  0  0  0  0  0  0  0  0  0  0  0
    2.4454   -0.1105    0.0000 C   0  0  0  0  0  0  0  0  0  0  0  0
    2.0329   -0.8250    0.0000 N   0  0  0  0  0  0  0  0  0  0  0  0
  1  2  1  0  0  0  0
  2  3  1  0  0  0  0
  3  4  2  0  0  0  0
  3  5  1  0  0  0  0
  5  6  1  0  0  0  0
  6  7  4  0  0  0  0
  7  8  4  0  0  0  0
  8  9  4  0  0  0  0
  9 10  4  0  0  0  0
 10 11  4  0  0  0  0
  6 11  4  0  0  0  0
 10 12  1  0  0  0  0
 12 13  1  0  0  0  0
 13 14  2  0  0  0  0
 13 15  1  0  0  0  0
 15 16  1  6  0  0  0
 15 17  1  0  0  0  0
 17 18  1  0  0  0  0
 18 19  1  0  0  0  0
 19 20  1  0  0  0  0
 20 21  1  6  0  0  0
 21 22  1  0  0  0  0
 22 23  1  0  0  0  0
 23 24  1  0  0  0  0
 24 25  1  0  0  0  0
 25 26  4  0  0  0  0
 26 27  1  0  0  0  0
 26 28  4  0  0  0  0
 28 29  4  0  0  0  0
 29 30  4  0  0  0  0
 30 31  1  0  0  0  0
 30 32  4  0  0  0  0
 25 32  4  0  0  0  0
 32 33  1  0  0  0  0
 24 34  2  0  0  0  0
 34 35  1  0  0  0  0
 34 36  1  0  0  0  0
 21 36  1  0  0  0  0
 36 37  2  0  0  0  0
 20 38  1  0  0  0  0
 38 39  4  0  0  0  0
 39 40  4  0  0  0  0
  9 40  1  0  0  0  0
 40 41  4  0  0  0  0
 41 42  4  0  0  0  0
 42 43  4  0  0  0  0
 38 43  4  0  0  0  0
M  END
>  <CdId>
358661

>  <Mol Weight>
609.063

>  <Formula>
C32H31ClF2N4O4

>  <cmpd_chemblid>
CHEMBL4107822

>  <std_type>
Ki

>  <std_value>
16.55

>  <std_unit>
nM

>  <target_id>
CHEMBL2016

>  <target_name>
Coagulation factor IX

>  <organism>
Homo sapiens

>  <target_type>
SINGLE PROTEIN

$$$$

  Mrv0541 08052111042D          

 42 46  0  0  1  0            999 V2000
    8.3102   -2.3717    0.0000 C   0  0  0  0  0  0  0  0  0  0  0  0
    7.9481   -1.6304    0.0000 O   0  0  0  0  0  0  0  0  0  0  0  0
    7.1251   -1.5734    0.0000 C   0  0  0  0  0  0  0  0  0  0  0  0
    6.6642   -2.2577    0.0000 O   0  0  0  0  0  0  0  0  0  0  0  0
    6.7629   -0.8321    0.0000 N   0  0  0  0  0  0  0  0  0  0  0  0
    5.9399   -0.7751    0.0000 C   0  0  0  0  0  0  0  0  0  0  0  0
    5.5778   -0.0339    0.0000 C   0  0  0  0  0  0  0  0  0  0  0  0
    4.7547    0.0231    0.0000 C   0  0  0  0  0  0  0  0  0  0  0  0
    4.2938   -0.6611    0.0000 C   0  0  0  0  0  0  0  0  0  0  0  0
    4.6560   -1.4024    0.0000 C   0  0  0  0  0  0  0  0  0  0  0  0
    5.4790   -1.4594    0.0000 C   0  0  0  0  0  0  0  0  0  0  0  0
    4.1951   -2.0867    0.0000 N   0  0  0  0  0  0  0  0  0  0  0  0
    4.5573   -2.8279    0.0000 C   0  0  0  0  0  0  0  0  0  0  0  0
    5.3803   -2.8849    0.0000 O   0  0  0  0  0  0  0  0  0  0  0  0
    4.0964   -3.5122    0.0000 C   0  0  2  0  0  0  0  0  0  0  0  0
    4.4585   -4.2534    0.0000 C   0  0  0  0  0  0  0  0  0  0  0  0
    3.2733   -3.4552    0.0000 C   0  0  0  0  0  0  0  0  0  0  0  0
    2.9112   -2.7139    0.0000 C   0  0  0  0  0  0  0  0  0  0  0  0
    2.0882   -2.6569    0.0000 C   0  0  0  0  0  0  0  0  0  0  0  0
    1.7260   -1.9156    0.0000 C   0  0  2  0  0  0  0  0  0  0  0  0
    0.9030   -1.8586    0.0000 N   0  0  0  0  0  0  0  0  0  0  0  0
    0.4421   -2.5429    0.0000 C   0  0  0  0  0  0  0  0  0  0  0  0
   -0.3809   -2.4859    0.0000 C   0  0  0  0  0  0  0  0  0  0  0  0
   -0.7431   -1.7446    0.0000 C   0  0  0  0  0  0  0  0  0  0  0  0
   -1.5661   -1.6876    0.0000 C   0  0  0  0  0  0  0  0  0  0  0  0
   -2.0270   -2.3719    0.0000 C   0  0  0  0  0  0  0  0  0  0  0  0
   -1.6648   -3.1131    0.0000 F   0  0  0  0  0  0  0  0  0  0  0  0
   -2.8500   -2.3148    0.0000 C   0  0  0  0  0  0  0  0  0  0  0  0
   -3.2121   -1.5736    0.0000 C   0  0  0  0  0  0  0  0  0  0  0  0
   -2.7513   -0.8893    0.0000 C   0  0  0  0  0  0  0  0  0  0  0  0
   -3.1134   -0.1481    0.0000 Cl  0  0  0  0  0  0  0  0  0  0  0  0
   -1.9282   -0.9463    0.0000 C   0  0  0  0  0  0  0  0  0  0  0  0
   -1.4673   -0.2621    0.0000 F   0  0  0  0  0  0  0  0  0  0  0  0
   -0.2822   -1.0603    0.0000 C   0  0  0  0  0  0  0  0  0  0  0  0
    0.5409   -1.1174    0.0000 C   0  0  0  0  0  0  0  0  0  0  0  0
    1.0017   -0.4331    0.0000 O   0  0  0  0  0  0  0  0  0  0  0  0
    2.1869   -1.2314    0.0000 C   0  0  0  0  0  0  0  0  0  0  0  0
    3.0099   -1.2884    0.0000 N   0  0  0  0  0  0  0  0  0  0  0  0
    3.4708   -0.6041    0.0000 C   0  0  0  0  0  0  0  0  0  0  0  0
    2.8128   -0.0523    0.0000 C   0  0  0  0  0  0  0  0  0  0  0  0
    2.9130    0.7666    0.0000 Cl  0  0  0  0  0  0  0  0  0  0  0  0
    2.0716   -0.4145    0.0000 N   0  0  0  0  0  0  0  0  0  0  0  0
  1  2  1  0  0  0  0
  2  3  1  0  0  0  0
  3  4  2  0  0  0  0
  3  5  1  0  0  0  0
  5  6  1  0  0  0  0
  6  7  4  0  0  0  0
  7  8  4  0  0  0  0
  8  9  4  0  0  0  0
  9 10  4  0  0  0  0
 10 11  4  0  0  0  0
  6 11  4  0  0  0  0
 10 12  1  0  0  0  0
 12 13  1  0  0  0  0
 13 14  2  0  0  0  0
 13 15  1  0  0  0  0
 15 16  1  6  0  0  0
 15 17  1  0  0  0  0
 17 18  1  0  0  0  0
 18 19  1  0  0  0  0
 19 20  1  0  0  0  0
 20 21  1  6  0  0  0
 21 22  1  0  0  0  0
 22 23  1  0  0  0  0
 23 24  1  0  0  0  0
 24 25  1  0  0  0  0
 25 26  4  0  0  0  0
 26 27  1  0  0  0  0
 26 28  4  0  0  0  0
 28 29  4  0  0  0  0
 29 30  4  0  0  0  0
 30 31  1  0  0  0  0
 30 32  4  0  0  0  0
 25 32  4  0  0  0  0
 32 33  1  0  0  0  0
 24 34  2  0  0  0  0
 34 35  1  0  0  0  0
 21 35  1  0  0  0  0
 35 36  2  0  0  0  0
 20 37  1  0  0  0  0
 37 38  4  0  0  0  0
 38 39  4  0  0  0  0
  9 39  1  0  0  0  0
 39 40  4  0  0  0  0
 40 41  1  0  0  0  0
 40 42  4  0  0  0  0
 37 42  4  0  0  0  0
M  STY  1   1 DAT
M  SAL   1  1  42
M  SDT   1 MRV_IMPLICIT_H                                        
M  SDD   1     0.0000    0.0000    DR    ALL  0       0  
M  SED   1 IMPL_H1
M  END
>  <CdId>
358662

>  <Mol Weight>
618.459

>  <Formula>
C29H27Cl2F2N5O4

>  <cmpd_chemblid>
CHEMBL4114881

>  <std_type>
Ki

>  <std_value>
0.05

>  <std_unit>
nM

>  <target_id>
CHEMBL2016

>  <target_name>
Coagulation factor IX

>  <organism>
Homo sapiens

>  <target_type>
SINGLE PROTEIN

$$$$

  Mrv0541 08052111042D          

 42 46  0  0  1  0            999 V2000
    8.6329   -2.2539    0.0000 C   0  0  0  0  0  0  0  0  0  0  0  0
    8.2204   -1.5395    0.0000 O   0  0  0  0  0  0  0  0  0  0  0  0
    7.3954   -1.5395    0.0000 C   0  0  0  0  0  0  0  0  0  0  0  0
    6.9829   -2.2539    0.0000 O   0  0  0  0  0  0  0  0  0  0  0  0
    6.9829   -0.8250    0.0000 N   0  0  0  0  0  0  0  0  0  0  0  0
    6.1579   -0.8250    0.0000 C   0  0  0  0  0  0  0  0  0  0  0  0
    5.7454   -0.1105    0.0000 C   0  0  0  0  0  0  0  0  0  0  0  0
    4.9204   -0.1105    0.0000 C   0  0  0  0  0  0  0  0  0  0  0  0
    4.5079   -0.8250    0.0000 C   0  0  0  0  0  0  0  0  0  0  0  0
    4.9204   -1.5395    0.0000 C   0  0  0  0  0  0  0  0  0  0  0  0
    5.7454   -1.5395    0.0000 C   0  0  0  0  0  0  0  0  0  0  0  0
    4.5079   -2.2539    0.0000 N   0  0  0  0  0  0  0  0  0  0  0  0
    4.9204   -2.9684    0.0000 C   0  0  0  0  0  0  0  0  0  0  0  0
    5.7454   -2.9684    0.0000 O   0  0  0  0  0  0  0  0  0  0  0  0
    4.5079   -3.6829    0.0000 C   0  0  2  0  0  0  0  0  0  0  0  0
    4.9204   -4.3974    0.0000 C   0  0  0  0  0  0  0  0  0  0  0  0
    3.6829   -3.6829    0.0000 C   0  0  0  0  0  0  0  0  0  0  0  0
    3.2704   -2.9684    0.0000 C   0  0  0  0  0  0  0  0  0  0  0  0
    2.4454   -2.9684    0.0000 C   0  0  0  0  0  0  0  0  0  0  0  0
    2.0329   -2.2539    0.0000 C   0  0  2  0  0  0  0  0  0  0  0  0
    1.2079   -2.2539    0.0000 N   0  0  0  0  0  0  0  0  0  0  0  0
    0.7954   -2.9684    0.0000 C   0  0  0  0  0  0  0  0  0  0  0  0
   -0.0296   -2.9684    0.0000 C   0  0  0  0  0  0  0  0  0  0  0  0
   -0.4421   -2.2539    0.0000 C   0  0  0  0  0  0  0  0  0  0  0  0
   -1.2671   -2.2539    0.0000 C   0  0  0  0  0  0  0  0  0  0  0  0
   -1.6796   -2.9684    0.0000 C   0  0  0  0  0  0  0  0  0  0  0  0
   -1.2671   -3.6829    0.0000 Br  0  0  0  0  0  0  0  0  0  0  0  0
   -2.5046   -2.9684    0.0000 C   0  0  0  0  0  0  0  0  0  0  0  0
   -2.9171   -2.2539    0.0000 C   0  0  0  0  0  0  0  0  0  0  0  0
   -2.5046   -1.5395    0.0000 C   0  0  0  0  0  0  0  0  0  0  0  0
   -2.9171   -0.8250    0.0000 Cl  0  0  0  0  0  0  0  0  0  0  0  0
   -1.6796   -1.5395    0.0000 C   0  0  0  0  0  0  0  0  0  0  0  0
   -1.2671   -0.8250    0.0000 F   0  0  0  0  0  0  0  0  0  0  0  0
   -0.0296   -1.5395    0.0000 C   0  0  0  0  0  0  0  0  0  0  0  0
    0.7954   -1.5395    0.0000 C   0  0  0  0  0  0  0  0  0  0  0  0
    1.2079   -0.8250    0.0000 O   0  0  0  0  0  0  0  0  0  0  0  0
    2.4454   -1.5395    0.0000 C   0  0  0  0  0  0  0  0  0  0  0  0
    2.0329   -0.8250    0.0000 C   0  0  0  0  0  0  0  0  0  0  0  0
    2.4454   -0.1105    0.0000 C   0  0  0  0  0  0  0  0  0  0  0  0
    3.2704   -0.1105    0.0000 C   0  0  0  0  0  0  0  0  0  0  0  0
    3.6829   -0.8250    0.0000 C   0  0  0  0  0  0  0  0  0  0  0  0
    3.2704   -1.5395    0.0000 C   0  0  0  0  0  0  0  0  0  0  0  0
  1  2  1  0  0  0  0
  2  3  1  0  0  0  0
  3  4  2  0  0  0  0
  3  5  1  0  0  0  0
  5  6  1  0  0  0  0
  6  7  4  0  0  0  0
  7  8  4  0  0  0  0
  8  9  4  0  0  0  0
  9 10  4  0  0  0  0
 10 11  4  0  0  0  0
  6 11  4  0  0  0  0
 10 12  1  0  0  0  0
 12 13  1  0  0  0  0
 13 14  2  0  0  0  0
 13 15  1  0  0  0  0
 15 16  1  6  0  0  0
 15 17  1  0  0  0  0
 17 18  1  0  0  0  0
 18 19  1  0  0  0  0
 19 20  1  0  0  0  0
 20 21  1  6  0  0  0
 21 22  1  0  0  0  0
 22 23  1  0  0  0  0
 23 24  1  0  0  0  0
 24 25  1  0  0  0  0
 25 26  4  0  0  0  0
 26 27  1  0  0  0  0
 26 28  4  0  0  0  0
 28 29  4  0  0  0  0
 29 30  4  0  0  0  0
 30 31  1  0  0  0  0
 30 32  4  0  0  0  0
 25 32  4  0  0  0  0
 32 33  1  0  0  0  0
 24 34  2  0  0  0  0
 34 35  1  0  0  0  0
 21 35  1  0  0  0  0
 35 36  2  0  0  0  0
 20 37  1  0  0  0  0
 37 38  4  0  0  0  0
 38 39  4  0  0  0  0
 39 40  4  0  0  0  0
 40 41  4  0  0  0  0
  9 41  1  0  0  0  0
 41 42  4  0  0  0  0
 37 42  4  0  0  0  0
M  END
>  <CdId>
358663

>  <Mol Weight>
654.954

>  <Formula>
C32H30BrClFN3O4

>  <cmpd_chemblid>
CHEMBL4111308

>  <std_type>
Ki

>  <std_value>
0.59

>  <std_unit>
nM

>  <target_id>
CHEMBL2016

>  <target_name>
Coagulation factor IX

>  <organism>
Homo sapiens

>  <target_type>
SINGLE PROTEIN

$$$$

  Mrv0541 08052111042D          

 39 44  0  0  0  0            999 V2000
   10.2293    2.9548    0.0000 N   0  0  0  0  0  0  0  0  0  0  0  0
    9.5148    3.3673    0.0000 C   0  0  0  0  0  0  0  0  0  0  0  0
    9.5148    4.1923    0.0000 N   0  0  0  0  0  0  0  0  0  0  0  0
    8.8003    2.9548    0.0000 C   0  0  0  0  0  0  0  0  0  0  0  0
    8.8003    2.1298    0.0000 C   0  0  0  0  0  0  0  0  0  0  0  0
    8.0859    1.7173    0.0000 C   0  0  0  0  0  0  0  0  0  0  0  0
    7.3714    2.1298    0.0000 C   0  0  0  0  0  0  0  0  0  0  0  0
    6.5868    1.8748    0.0000 N   0  0  0  0  0  0  0  0  0  0  0  0
    6.1019    2.5423    0.0000 C   0  0  0  0  0  0  0  0  0  0  0  0
    6.5868    3.2097    0.0000 C   0  0  0  0  0  0  0  0  0  0  0  0
    6.3318    3.9943    0.0000 C   0  0  0  0  0  0  0  0  0  0  0  0
    5.5249    4.1659    0.0000 C   0  0  0  0  0  0  0  0  0  0  0  0
    5.2699    4.9505    0.0000 C   0  0  0  0  0  0  0  0  0  0  0  0
    4.4630    5.1220    0.0000 C   0  0  0  0  0  0  0  0  0  0  0  0
    4.2080    5.9066    0.0000 C   0  0  0  0  0  0  0  0  0  0  0  0
    4.7600    6.5197    0.0000 C   0  0  0  0  0  0  0  0  0  0  0  0
    4.5051    7.3044    0.0000 N   0  0  0  0  0  0  0  0  0  0  0  0
    5.5670    6.3482    0.0000 C   0  0  0  0  0  0  0  0  0  0  0  0
    5.8220    5.5636    0.0000 C   0  0  0  0  0  0  0  0  0  0  0  0
    6.8839    4.6074    0.0000 C   0  0  0  0  0  0  0  0  0  0  0  0
    7.6908    4.4359    0.0000 O   0  0  0  0  0  0  0  0  0  0  0  0
    6.6289    5.3921    0.0000 N   0  0  0  0  0  0  0  0  0  0  0  0
    7.1810    6.0052    0.0000 C   0  0  0  0  0  0  0  0  0  0  0  0
    6.9260    6.7898    0.0000 C   0  0  0  0  0  0  0  0  0  0  0  0
    7.4781    7.4029    0.0000 C   0  0  0  0  0  0  0  0  0  0  0  0
    8.2850    7.2313    0.0000 C   0  0  0  0  0  0  0  0  0  0  0  0
    8.8371    7.8444    0.0000 N   0  0  0  0  0  0  0  0  0  0  0  0
    8.6655    8.6514    0.0000 C   0  0  0  0  0  0  0  0  0  0  0  0
    9.3800    9.0639    0.0000 N   0  0  0  0  0  0  0  0  0  0  0  0
    9.9931    8.5119    0.0000 C   0  0  0  0  0  0  0  0  0  0  0  0
   10.8136    8.5981    0.0000 C   0  0  0  0  0  0  0  0  0  0  0  0
   11.2985    7.9307    0.0000 C   0  0  0  0  0  0  0  0  0  0  0  0
   10.9629    7.1770    0.0000 C   0  0  0  0  0  0  0  0  0  0  0  0
   10.1425    7.0908    0.0000 C   0  0  0  0  0  0  0  0  0  0  0  0
    9.6575    7.7582    0.0000 C   0  0  0  0  0  0  0  0  0  0  0  0
    8.5400    6.4467    0.0000 C   0  0  0  0  0  0  0  0  0  0  0  0
    7.9879    5.8336    0.0000 C   0  0  0  0  0  0  0  0  0  0  0  0
    7.3714    2.9548    0.0000 C   0  0  0  0  0  0  0  0  0  0  0  0
    8.0859    3.3673    0.0000 C   0  0  0  0  0  0  0  0  0  0  0  0
  1  2  2  0  0  0  0
  2  3  1  0  0  0  0
  2  4  1  0  0  0  0
  4  5  4  0  0  0  0
  5  6  4  0  0  0  0
  6  7  4  0  0  0  0
  7  8  4  0  0  0  0
  8  9  4  0  0  0  0
  9 10  4  0  0  0  0
 10 11  1  0  0  0  0
 11 12  1  0  0  0  0
 12 13  1  0  0  0  0
 13 14  4  0  0  0  0
 14 15  4  0  0  0  0
 15 16  4  0  0  0  0
 16 17  1  0  0  0  0
 16 18  4  0  0  0  0
 18 19  4  0  0  0  0
 13 19  4  0  0  0  0
 11 20  1  0  0  0  0
 20 21  2  0  0  0  0
 20 22  1  0  0  0  0
 22 23  1  0  0  0  0
 23 24  4  0  0  0  0
 24 25  4  0  0  0  0
 25 26  4  0  0  0  0
 26 27  1  0  0  0  0
 27 28  4  0  0  0  0
 28 29  4  0  0  0  0
 29 30  4  0  0  0  0
 30 31  4  0  0  0  0
 31 32  4  0  0  0  0
 32 33  4  0  0  0  0
 33 34  4  0  0  0  0
 34 35  4  0  0  0  0
 30 35  4  0  0  0  0
 27 35  4  0  0  0  0
 26 36  4  0  0  0  0
 36 37  4  0  0  0  0
 23 37  4  0  0  0  0
 10 38  4  0  0  0  0
  7 38  4  0  0  0  0
 38 39  4  0  0  0  0
  4 39  4  0  0  0  0
M  STY  1   1 DAT
M  SAL   1  1   8
M  SDT   1 MRV_IMPLICIT_H                                        
M  SDD   1     0.0000    0.0000    DR    ALL  0       0  
M  SED   1 IMPL_H1
M  END
>  <CdId>
358664

>  <Mol Weight>
513.5924

>  <Formula>
C31H27N7O

>  <cmpd_chemblid>
CHEMBL186900

>  <std_type>
Ki

>  <std_value>
75.0

>  <std_unit>
nM

>  <target_id>
CHEMBL2016

>  <target_name>
Coagulation factor IX

>  <organism>
Homo sapiens

>  <target_type>
SINGLE PROTEIN

$$$$

  Mrv0541 08052111042D          

 38 42  0  0  1  0            999 V2000
   -6.2882    3.2512    0.0000 C   0  0  0  0  0  0  0  0  0  0  0  0
   -5.6751    3.8032    0.0000 N   0  0  0  0  0  0  0  0  0  0  0  0
   -4.8904    3.5483    0.0000 C   0  0  0  0  0  0  0  0  0  0  0  0
   -4.2230    4.0332    0.0000 N   0  0  0  0  0  0  0  0  0  0  0  0
   -3.5556    3.5483    0.0000 C   0  0  0  0  0  0  0  0  0  0  0  0
   -3.8105    2.7637    0.0000 C   0  0  0  0  0  0  0  0  0  0  0  0
   -3.3256    2.0962    0.0000 S   0  0  0  0  0  0  0  0  0  0  0  0
   -2.6581    2.5812    0.0000 O   0  0  0  0  0  0  0  0  0  0  0  0
   -3.9930    1.6113    0.0000 O   0  0  0  0  0  0  0  0  0  0  0  0
   -2.8407    1.4288    0.0000 N   0  0  0  0  0  0  0  0  0  0  0  0
   -2.0202    1.5150    0.0000 C   0  0  1  0  0  0  0  0  0  0  0  0
   -1.6077    2.2295    0.0000 C   0  0  0  0  0  0  0  0  0  0  0  0
   -0.8007    2.0580    0.0000 C   0  0  0  0  0  0  0  0  0  0  0  0
   -0.7145    1.2375    0.0000 N   0  0  0  0  0  0  0  0  0  0  0  0
    0.0000    0.8250    0.0000 C   0  0  2  0  0  0  0  0  0  0  0  0
    0.0000    0.0000    0.0000 C   0  0  0  0  0  0  0  0  0  0  0  0
    0.7145   -0.4125    0.0000 C   0  0  0  0  0  0  0  0  0  0  0  0
    1.4289    0.0000    0.0000 C   0  0  0  0  0  0  0  0  0  0  0  0
    2.1434   -0.4125    0.0000 C   0  0  0  0  0  0  0  0  0  0  0  0
    2.8579    0.0000    0.0000 C   0  0  0  0  0  0  0  0  0  0  0  0
    3.5724   -0.4125    0.0000 C   0  0  0  0  0  0  0  0  0  0  0  0
    3.5724   -1.2375    0.0000 N   0  0  0  0  0  0  0  0  0  0  0  0
    2.8579   -1.6500    0.0000 C   0  0  0  0  0  0  0  0  0  0  0  0
    2.8579   -2.4750    0.0000 N   0  0  0  0  0  0  0  0  0  0  0  0
    2.1434   -1.2375    0.0000 C   0  0  0  0  0  0  0  0  0  0  0  0
    1.4289   -1.6500    0.0000 C   0  0  0  0  0  0  0  0  0  0  0  0
    0.7145   -1.2375    0.0000 C   0  0  0  0  0  0  0  0  0  0  0  0
    0.0000   -1.6500    0.0000 Cl  0  0  0  0  0  0  0  0  0  0  0  0
    0.7145    1.2375    0.0000 C   0  0  0  0  0  0  0  0  0  0  0  0
    0.7145    2.0625    0.0000 O   0  0  0  0  0  0  0  0  0  0  0  0
    1.4289    0.8250    0.0000 O   0  0  0  0  0  0  0  0  0  0  0  0
   -1.4681    0.9019    0.0000 C   0  0  0  0  0  0  0  0  0  0  0  0
   -1.6397    0.0950    0.0000 O   0  0  0  0  0  0  0  0  0  0  0  0
   -4.6355    2.7637    0.0000 S   0  0  0  0  0  0  0  0  0  0  0  0
   -5.8466    4.6102    0.0000 C   0  0  0  0  0  0  0  0  0  0  0  0
   -6.5385    5.0595    0.0000 C   0  0  0  0  0  0  0  0  0  0  0  0
   -6.0892    5.7514    0.0000 C   0  0  0  0  0  0  0  0  0  0  0  0
   -5.3973    5.3021    0.0000 C   0  0  0  0  0  0  0  0  0  0  0  0
  1  2  1  0  0  0  0
  2  3  1  0  0  0  0
  3  4  4  0  0  0  0
  4  5  4  0  0  0  0
  5  6  4  0  0  0  0
  6  7  1  0  0  0  0
  7  8  2  0  0  0  0
  7  9  2  0  0  0  0
  7 10  1  0  0  0  0
 11 10  1  1  0  0  0
 11 12  1  0  0  0  0
 12 13  1  0  0  0  0
 13 14  1  0  0  0  0
 15 14  1  1  0  0  0
 15 16  1  0  0  0  0
 16 17  1  0  0  0  0
 17 18  4  0  0  0  0
 18 19  4  0  0  0  0
 19 20  4  0  0  0  0
 20 21  4  0  0  0  0
 21 22  4  0  0  0  0
 22 23  4  0  0  0  0
 23 24  1  0  0  0  0
 23 25  4  0  0  0  0
 19 25  4  0  0  0  0
 25 26  4  0  0  0  0
 26 27  4  0  0  0  0
 17 27  4  0  0  0  0
 27 28  1  0  0  0  0
 15 29  1  0  0  0  0
 29 30  2  0  0  0  0
 29 31  1  0  0  0  0
 14 32  1  0  0  0  0
 11 32  1  0  0  0  0
 32 33  2  0  0  0  0
  6 34  4  0  0  0  0
  3 34  4  0  0  0  0
  2 35  1  0  0  0  0
 35 36  1  0  0  0  0
 36 37  1  0  0  0  0
 37 38  1  0  0  0  0
 35 38  1  0  0  0  0
M  END
>  <CdId>
358665

>  <Mol Weight>
579.091

>  <Formula>
C24H27ClN6O5S2

>  <cmpd_chemblid>
CHEMBL3933418

>  <std_type>
Ki

>  <std_value>
65.0

>  <std_unit>
nM

>  <target_id>
CHEMBL2016

>  <target_name>
Coagulation factor IX

>  <organism>
Homo sapiens

>  <target_type>
SINGLE PROTEIN

$$$$

  Mrv0541 08052111042D          

 31 34  0  0  0  0            999 V2000
    2.5645    4.9500    0.0000 C   0  0  0  0  0  0  0  0  0  0  0  0
    3.2789    4.5375    0.0000 O   0  0  0  0  0  0  0  0  0  0  0  0
    3.9934    4.9500    0.0000 C   0  0  0  0  0  0  0  0  0  0  0  0
    3.9934    5.7750    0.0000 C   0  0  0  0  0  0  0  0  0  0  0  0
    4.7079    6.1875    0.0000 C   0  0  0  0  0  0  0  0  0  0  0  0
    5.4223    5.7750    0.0000 C   0  0  0  0  0  0  0  0  0  0  0  0
    5.4223    4.9500    0.0000 C   0  0  0  0  0  0  0  0  0  0  0  0
    4.7079    4.5375    0.0000 C   0  0  0  0  0  0  0  0  0  0  0  0
    4.7079    3.7125    0.0000 N   0  0  0  0  0  0  0  0  0  0  0  0
    3.9934    3.3000    0.0000 C   0  0  0  0  0  0  0  0  0  0  0  0
    3.2789    3.7125    0.0000 O   0  0  0  0  0  0  0  0  0  0  0  0
    3.9934    2.4750    0.0000 C   0  0  0  0  0  0  0  0  0  0  0  0
    3.2789    2.0625    0.0000 O   0  0  0  0  0  0  0  0  0  0  0  0
    3.2789    1.2375    0.0000 C   0  0  0  0  0  0  0  0  0  0  0  0
    3.9934    0.8250    0.0000 C   0  0  0  0  0  0  0  0  0  0  0  0
    3.9934    0.0000    0.0000 C   0  0  0  0  0  0  0  0  0  0  0  0
    3.2789   -0.4125    0.0000 C   0  0  0  0  0  0  0  0  0  0  0  0
    2.5645    0.0000    0.0000 C   0  0  0  0  0  0  0  0  0  0  0  0
    1.7798   -0.2549    0.0000 S   0  0  0  0  0  0  0  0  0  0  0  0
    1.2949    0.4125    0.0000 C   0  0  0  0  0  0  0  0  0  0  0  0
    0.4699    0.4125    0.0000 C   0  0  0  0  0  0  0  0  0  0  0  0
    0.0574   -0.3020    0.0000 N   0  0  0  0  0  0  0  0  0  0  0  0
    0.0574    1.1270    0.0000 N   0  0  0  0  0  0  0  0  0  0  0  0
    1.7798    1.0799    0.0000 C   0  0  0  0  0  0  0  0  0  0  0  0
    2.5645    0.8250    0.0000 C   0  0  0  0  0  0  0  0  0  0  0  0
    4.7079    2.0625    0.0000 C   0  0  0  0  0  0  0  0  0  0  0  0
    5.4223    2.4750    0.0000 C   0  0  0  0  0  0  0  0  0  0  0  0
    6.1368    2.0625    0.0000 C   0  0  0  0  0  0  0  0  0  0  0  0
    6.1368    1.2375    0.0000 C   0  0  0  0  0  0  0  0  0  0  0  0
    5.4223    0.8250    0.0000 C   0  0  0  0  0  0  0  0  0  0  0  0
    4.7079    1.2375    0.0000 C   0  0  0  0  0  0  0  0  0  0  0  0
  1  2  1  0  0  0  0
  2  3  1  0  0  0  0
  3  4  4  0  0  0  0
  4  5  4  0  0  0  0
  5  6  4  0  0  0  0
  6  7  4  0  0  0  0
  7  8  4  0  0  0  0
  3  8  4  0  0  0  0
  8  9  1  0  0  0  0
  9 10  1  0  0  0  0
 10 11  2  0  0  0  0
 10 12  1  0  0  0  0
 12 13  1  0  0  0  0
 13 14  1  0  0  0  0
 14 15  4  0  0  0  0
 15 16  4  0  0  0  0
 16 17  4  0  0  0  0
 17 18  4  0  0  0  0
 18 19  4  0  0  0  0
 19 20  4  0  0  0  0
 20 21  1  0  0  0  0
 21 22  2  0  0  0  0
 21 23  1  0  0  0  0
 20 24  4  0  0  0  0
 24 25  4  0  0  0  0
 14 25  4  0  0  0  0
 18 25  4  0  0  0  0
 12 26  1  0  0  0  0
 26 27  4  0  0  0  0
 27 28  4  0  0  0  0
 28 29  4  0  0  0  0
 29 30  4  0  0  0  0
 30 31  4  0  0  0  0
 26 31  4  0  0  0  0
M  END
>  <CdId>
358666

>  <Mol Weight>
431.507

>  <Formula>
C24H21N3O3S

>  <cmpd_chemblid>
CHEMBL597763

>  <std_type>
Ki

>  <std_value>
140.0

>  <std_unit>
nM

>  <target_id>
CHEMBL2016

>  <target_name>
Coagulation factor IX

>  <organism>
Homo sapiens

>  <target_type>
SINGLE PROTEIN

$$$$

  Mrv0541 08052111042D          

 33 38  0  0  1  0            999 V2000
    6.6189   -7.1718    0.0000 C   0  0  0  0  0  0  0  0  0  0  0  0
    5.7956   -7.1194    0.0000 C   0  0  0  0  0  0  0  0  0  0  0  0
    5.2693   -7.7547    0.0000 N   0  0  0  0  0  0  0  0  0  0  0  0
    4.5024   -7.4505    0.0000 C   0  0  0  0  0  0  0  0  0  0  0  0
    4.5548   -6.6271    0.0000 N   0  0  0  0  0  0  0  0  0  0  0  0
    3.9195   -6.1008    0.0000 C   0  0  0  0  0  0  0  0  0  0  0  0
    3.1461   -6.3878    0.0000 C   0  0  0  0  0  0  0  0  0  0  0  0
    2.5108   -5.8615    0.0000 C   0  0  0  0  0  0  0  0  0  0  0  0
    2.6489   -5.0482    0.0000 C   0  0  0  0  0  0  0  0  0  0  0  0
    2.0136   -4.5218    0.0000 C   0  0  0  0  0  0  0  0  0  0  0  0
    1.2402   -4.8088    0.0000 O   0  0  0  0  0  0  0  0  0  0  0  0
    2.1518   -3.7085    0.0000 N   0  0  0  0  0  0  0  0  0  0  0  0
    1.5165   -3.1822    0.0000 C   0  0  1  0  0  0  0  0  0  0  0  0
    0.8179   -2.7322    0.0000 C   0  0  1  0  0  0  0  0  0  0  0  0
   -0.0689   -2.9830    0.0000 C   0  0  0  0  0  0  0  0  0  0  0  0
   -0.3151   -2.3368    0.0000 C   0  0  0  0  0  0  0  0  0  0  0  0
    0.4582   -2.0670    0.0000 C   0  0  1  0  0  0  0  0  0  0  0  0
    0.7145   -1.2375    0.0000 N   0  0  0  0  0  0  0  0  0  0  0  0
    0.7145   -0.4125    0.0000 C   0  0  0  0  0  0  0  0  0  0  0  0
    0.0000    0.0000    0.0000 N   0  0  0  0  0  0  0  0  0  0  0  0
    0.0000    0.8250    0.0000 C   0  0  0  0  0  0  0  0  0  0  0  0
    0.7145    1.2375    0.0000 C   0  0  0  0  0  0  0  0  0  0  0  0
    0.7145    2.0625    0.0000 Cl  0  0  0  0  0  0  0  0  0  0  0  0
    1.4289    0.8250    0.0000 C   0  0  0  0  0  0  0  0  0  0  0  0
    2.2136    1.0799    0.0000 C   0  0  0  0  0  0  0  0  0  0  0  0
    2.6985    0.4125    0.0000 N   0  0  0  0  0  0  0  0  0  0  0  0
    2.2136   -0.2549    0.0000 O   0  0  0  0  0  0  0  0  0  0  0  0
    1.4289    0.0000    0.0000 C   0  0  0  0  0  0  0  0  0  0  0  0
    0.9373   -1.9587    0.0000 C   0  0  0  0  0  0  0  0  0  0  0  0
    3.4224   -4.7611    0.0000 C   0  0  0  0  0  0  0  0  0  0  0  0
    3.5605   -3.9478    0.0000 Cl  0  0  0  0  0  0  0  0  0  0  0  0
    4.0577   -5.2875    0.0000 C   0  0  0  0  0  0  0  0  0  0  0  0
    5.3540   -6.4225    0.0000 N   0  0  0  0  0  0  0  0  0  0  0  0
  1  2  1  0  0  0  0
  2  3  4  0  0  0  0
  3  4  4  0  0  0  0
  4  5  4  0  0  0  0
  5  6  1  0  0  0  0
  6  7  4  0  0  0  0
  7  8  4  0  0  0  0
  8  9  4  0  0  0  0
  9 10  1  0  0  0  0
 10 11  2  0  0  0  0
 10 12  1  0  0  0  0
 13 12  1  1  0  0  0
 13 14  1  0  0  0  0
 14 15  1  0  0  0  0
 15 16  1  0  0  0  0
 16 17  1  0  0  0  0
 13 17  1  0  0  0  0
 17 18  1  1  0  0  0
 18 19  1  0  0  0  0
 19 20  4  0  0  0  0
 20 21  4  0  0  0  0
 21 22  4  0  0  0  0
 22 23  1  0  0  0  0
 22 24  4  0  0  0  0
 24 25  4  0  0  0  0
 25 26  4  0  0  0  0
 26 27  4  0  0  0  0
 27 28  4  0  0  0  0
 19 28  4  0  0  0  0
 24 28  4  0  0  0  0
 18 29  1  0  0  0  0
 14 29  1  1  0  0  0
  9 30  4  0  0  0  0
 30 31  1  0  0  0  0
 30 32  4  0  0  0  0
  6 32  4  0  0  0  0
  5 33  4  0  0  0  0
  2 33  4  0  0  0  0
M  END
>  <CdId>
358668

>  <Mol Weight>
484.338

>  <Formula>
C22H19Cl2N7O2

>  <cmpd_chemblid>
CHEMBL4096341

>  <std_type>
Ki

>  <std_value>
2.45

>  <std_unit>
nM

>  <target_id>
CHEMBL2016

>  <target_name>
Coagulation factor IX

>  <organism>
Homo sapiens

>  <target_type>
SINGLE PROTEIN

$$$$

  Mrv0541 08052111042D          

 37 40  0  0  1  0            999 V2000
    7.1447    1.6500    0.0000 C   0  0  0  0  0  0  0  0  0  0  0  0
    7.1447    0.8250    0.0000 S   0  0  0  0  0  0  0  0  0  0  0  0
    6.3197    0.8250    0.0000 O   0  0  0  0  0  0  0  0  0  0  0  0
    7.9697    0.8250    0.0000 O   0  0  0  0  0  0  0  0  0  0  0  0
    7.1447    0.0000    0.0000 C   0  0  0  0  0  0  0  0  0  0  0  0
    7.8592   -0.4125    0.0000 C   0  0  0  0  0  0  0  0  0  0  0  0
    7.8592   -1.2375    0.0000 C   0  0  0  0  0  0  0  0  0  0  0  0
    7.1447   -1.6500    0.0000 C   0  0  0  0  0  0  0  0  0  0  0  0
    6.4302   -1.2375    0.0000 C   0  0  0  0  0  0  0  0  0  0  0  0
    6.4302   -0.4125    0.0000 C   0  0  0  0  0  0  0  0  0  0  0  0
    5.7158    0.0000    0.0000 C   0  0  0  0  0  0  0  0  0  0  0  0
    5.0013   -0.4125    0.0000 C   0  0  0  0  0  0  0  0  0  0  0  0
    4.2868    0.0000    0.0000 C   0  0  0  0  0  0  0  0  0  0  0  0
    4.2868    0.8250    0.0000 C   0  0  0  0  0  0  0  0  0  0  0  0
    3.5724    1.2375    0.0000 N   0  0  0  0  0  0  0  0  0  0  0  0
    2.8579    0.8250    0.0000 C   0  0  0  0  0  0  0  0  0  0  0  0
    2.1434    1.2375    0.0000 C   0  0  0  0  0  0  0  0  0  0  0  0
    2.1434    2.0625    0.0000 O   0  0  0  0  0  0  0  0  0  0  0  0
    2.8579    2.4750    0.0000 C   0  0  2  0  0  0  0  0  0  0  0  0
    2.8579    3.3000    0.0000 C   0  0  1  0  0  0  0  0  0  0  0  0
    2.1434    3.7125    0.0000 O   0  0  0  0  0  0  0  0  0  0  0  0
    3.5724    3.7125    0.0000 C   0  0  0  0  0  0  0  0  0  0  0  0
    4.2868    3.3000    0.0000 O   0  0  0  0  0  0  0  0  0  0  0  0
    3.5724    4.5375    0.0000 N   0  0  0  0  0  0  0  0  0  0  0  0
    4.2868    4.9500    0.0000 C   0  0  0  0  0  0  0  0  0  0  0  0
    4.2868    5.7750    0.0000 C   0  0  0  0  0  0  0  0  0  0  0  0
    5.0013    6.1875    0.0000 C   0  0  0  0  0  0  0  0  0  0  0  0
    5.7158    5.7750    0.0000 C   0  0  0  0  0  0  0  0  0  0  0  0
    6.4302    6.1875    0.0000 C   0  0  0  0  0  0  0  0  0  0  0  0
    6.4302    7.0125    0.0000 N   0  0  0  0  0  0  0  0  0  0  0  0
    7.1447    5.7750    0.0000 N   0  0  0  0  0  0  0  0  0  0  0  0
    5.7158    4.9500    0.0000 C   0  0  0  0  0  0  0  0  0  0  0  0
    5.0013    4.5375    0.0000 C   0  0  0  0  0  0  0  0  0  0  0  0
    3.5724    2.0625    0.0000 C   0  0  0  0  0  0  0  0  0  0  0  0
    4.2868    2.4750    0.0000 O   0  0  0  0  0  0  0  0  0  0  0  0
    5.0013    1.2375    0.0000 C   0  0  0  0  0  0  0  0  0  0  0  0
    5.7158    0.8250    0.0000 C   0  0  0  0  0  0  0  0  0  0  0  0
  1  2  1  0  0  0  0
  2  3  2  0  0  0  0
  2  4  2  0  0  0  0
  2  5  1  0  0  0  0
  5  6  4  0  0  0  0
  6  7  4  0  0  0  0
  7  8  4  0  0  0  0
  8  9  4  0  0  0  0
  9 10  4  0  0  0  0
  5 10  4  0  0  0  0
 10 11  1  0  0  0  0
 11 12  4  0  0  0  0
 12 13  4  0  0  0  0
 13 14  4  0  0  0  0
 14 15  1  0  0  0  0
 15 16  1  0  0  0  0
 16 17  1  0  0  0  0
 17 18  1  0  0  0  0
 18 19  1  0  0  0  0
 19 20  1  6  0  0  0
 20 21  1  1  0  0  0
 20 22  1  0  0  0  0
 22 23  2  0  0  0  0
 22 24  1  0  0  0  0
 24 25  1  0  0  0  0
 25 26  4  0  0  0  0
 26 27  4  0  0  0  0
 27 28  4  0  0  0  0
 28 29  1  0  0  0  0
 29 30  2  0  0  0  0
 29 31  1  0  0  0  0
 28 32  4  0  0  0  0
 32 33  4  0  0  0  0
 25 33  4  0  0  0  0
 19 34  1  0  0  0  0
 15 34  1  0  0  0  0
 34 35  2  0  0  0  0
 14 36  4  0  0  0  0
 36 37  4  0  0  0  0
 11 37  4  0  0  0  0
M  END
>  <CdId>
358669

>  <Mol Weight>
522.573

>  <Formula>
C26H26N4O6S

>  <cmpd_chemblid>
CHEMBL3658391

>  <std_type>
Ki

>  <std_value>
5.0

>  <std_unit>
nM

>  <target_id>
CHEMBL2016

>  <target_name>
Coagulation factor IX

>  <organism>
Homo sapiens

>  <target_type>
SINGLE PROTEIN

$$$$

  Mrv0541 08052111042D          

 43 47  0  0  1  0            999 V2000
    8.6329   -2.2539    0.0000 C   0  0  0  0  0  0  0  0  0  0  0  0
    8.2204   -1.5395    0.0000 O   0  0  0  0  0  0  0  0  0  0  0  0
    7.3954   -1.5395    0.0000 C   0  0  0  0  0  0  0  0  0  0  0  0
    6.9829   -2.2539    0.0000 O   0  0  0  0  0  0  0  0  0  0  0  0
    6.9829   -0.8250    0.0000 N   0  0  0  0  0  0  0  0  0  0  0  0
    6.1579   -0.8250    0.0000 C   0  0  0  0  0  0  0  0  0  0  0  0
    5.7454   -0.1105    0.0000 C   0  0  0  0  0  0  0  0  0  0  0  0
    4.9204   -0.1105    0.0000 C   0  0  0  0  0  0  0  0  0  0  0  0
    4.5079   -0.8250    0.0000 C   0  0  0  0  0  0  0  0  0  0  0  0
    4.9204   -1.5395    0.0000 C   0  0  0  0  0  0  0  0  0  0  0  0
    5.7454   -1.5395    0.0000 C   0  0  0  0  0  0  0  0  0  0  0  0
    4.5079   -2.2539    0.0000 N   0  0  0  0  0  0  0  0  0  0  0  0
    4.9204   -2.9684    0.0000 C   0  0  0  0  0  0  0  0  0  0  0  0
    5.7454   -2.9684    0.0000 O   0  0  0  0  0  0  0  0  0  0  0  0
    4.5079   -3.6829    0.0000 C   0  0  2  0  0  0  0  0  0  0  0  0
    4.9204   -4.3974    0.0000 C   0  0  0  0  0  0  0  0  0  0  0  0
    3.6829   -3.6829    0.0000 C   0  0  0  0  0  0  0  0  0  0  0  0
    3.2704   -2.9684    0.0000 C   0  0  0  0  0  0  0  0  0  0  0  0
    2.4454   -2.9684    0.0000 C   0  0  0  0  0  0  0  0  0  0  0  0
    2.0329   -2.2539    0.0000 C   0  0  2  0  0  0  0  0  0  0  0  0
    1.2079   -2.2539    0.0000 N   0  0  0  0  0  0  0  0  0  0  0  0
    0.7954   -2.9684    0.0000 C   0  0  0  0  0  0  0  0  0  0  0  0
   -0.0296   -2.9684    0.0000 C   0  0  0  0  0  0  0  0  0  0  0  0
   -0.4421   -3.6829    0.0000 C   0  0  0  0  0  0  0  0  0  0  0  0
   -0.4421   -2.2539    0.0000 C   0  0  0  0  0  0  0  0  0  0  0  0
   -1.2671   -2.2539    0.0000 C   0  0  0  0  0  0  0  0  0  0  0  0
   -1.6796   -2.9684    0.0000 C   0  0  0  0  0  0  0  0  0  0  0  0
   -1.2671   -3.6829    0.0000 F   0  0  0  0  0  0  0  0  0  0  0  0
   -2.5046   -2.9684    0.0000 C   0  0  0  0  0  0  0  0  0  0  0  0
   -2.9171   -2.2539    0.0000 C   0  0  0  0  0  0  0  0  0  0  0  0
   -2.5046   -1.5395    0.0000 C   0  0  0  0  0  0  0  0  0  0  0  0
   -2.9171   -0.8250    0.0000 Cl  0  0  0  0  0  0  0  0  0  0  0  0
   -1.6796   -1.5395    0.0000 C   0  0  0  0  0  0  0  0  0  0  0  0
   -1.2671   -0.8250    0.0000 F   0  0  0  0  0  0  0  0  0  0  0  0
   -0.0296   -1.5395    0.0000 C   0  0  0  0  0  0  0  0  0  0  0  0
    0.7954   -1.5395    0.0000 C   0  0  0  0  0  0  0  0  0  0  0  0
    1.2079   -0.8250    0.0000 O   0  0  0  0  0  0  0  0  0  0  0  0
    2.4454   -1.5395    0.0000 C   0  0  0  0  0  0  0  0  0  0  0  0
    3.2704   -1.5395    0.0000 C   0  0  0  0  0  0  0  0  0  0  0  0
    3.6829   -0.8250    0.0000 C   0  0  0  0  0  0  0  0  0  0  0  0
    3.2704   -0.1105    0.0000 C   0  0  0  0  0  0  0  0  0  0  0  0
    2.4454   -0.1105    0.0000 C   0  0  0  0  0  0  0  0  0  0  0  0
    2.0329   -0.8250    0.0000 N   0  0  0  0  0  0  0  0  0  0  0  0
  1  2  1  0  0  0  0
  2  3  1  0  0  0  0
  3  4  2  0  0  0  0
  3  5  1  0  0  0  0
  5  6  1  0  0  0  0
  6  7  4  0  0  0  0
  7  8  4  0  0  0  0
  8  9  4  0  0  0  0
  9 10  4  0  0  0  0
 10 11  4  0  0  0  0
  6 11  4  0  0  0  0
 10 12  1  0  0  0  0
 12 13  1  0  0  0  0
 13 14  2  0  0  0  0
 13 15  1  0  0  0  0
 15 16  1  6  0  0  0
 15 17  1  0  0  0  0
 17 18  1  0  0  0  0
 18 19  1  0  0  0  0
 19 20  1  0  0  0  0
 20 21  1  6  0  0  0
 21 22  1  0  0  0  0
 22 23  1  0  0  0  0
 23 24  1  0  0  0  0
 23 25  1  0  0  0  0
 25 26  1  0  0  0  0
 26 27  4  0  0  0  0
 27 28  1  0  0  0  0
 27 29  4  0  0  0  0
 29 30  4  0  0  0  0
 30 31  4  0  0  0  0
 31 32  1  0  0  0  0
 31 33  4  0  0  0  0
 26 33  4  0  0  0  0
 33 34  1  0  0  0  0
 25 35  2  0  0  0  0
 35 36  1  0  0  0  0
 21 36  1  0  0  0  0
 36 37  2  0  0  0  0
 20 38  1  0  0  0  0
 38 39  4  0  0  0  0
 39 40  4  0  0  0  0
  9 40  1  0  0  0  0
 40 41  4  0  0  0  0
 41 42  4  0  0  0  0
 42 43  4  0  0  0  0
 38 43  4  0  0  0  0
M  END
>  <CdId>
358670

>  <Mol Weight>
609.063

>  <Formula>
C32H31ClF2N4O4

>  <cmpd_chemblid>
CHEMBL4112921

>  <std_type>
Ki

>  <std_value>
0.88

>  <std_unit>
nM

>  <target_id>
CHEMBL2016

>  <target_name>
Coagulation factor IX

>  <organism>
Homo sapiens

>  <target_type>
SINGLE PROTEIN

$$$$

  Mrv0541 08052111042D          

 32 36  0  0  1  0            999 V2000
   -1.4066   -1.6301    0.0000 C   0  0  0  0  0  0  0  0  0  0  0  0
   -0.5996   -1.8016    0.0000 C   0  0  0  0  0  0  0  0  0  0  0  0
   -0.3446   -2.5862    0.0000 C   0  0  0  0  0  0  0  0  0  0  0  0
    0.4623   -2.7578    0.0000 C   0  0  0  0  0  0  0  0  0  0  0  0
    1.0144   -2.1447    0.0000 C   0  0  0  0  0  0  0  0  0  0  0  0
    1.8394   -2.1447    0.0000 C   0  0  0  0  0  0  0  0  0  0  0  0
    2.0943   -1.3601    0.0000 C   0  0  0  0  0  0  0  0  0  0  0  0
    1.4269   -0.8751    0.0000 N   0  0  0  0  0  0  0  0  0  0  0  0
    0.7594   -1.3601    0.0000 N   0  0  0  0  0  0  0  0  0  0  0  0
   -0.0476   -1.1885    0.0000 C   0  0  0  0  0  0  0  0  0  0  0  0
    2.9013   -1.1885    0.0000 C   0  0  0  0  0  0  0  0  0  0  0  0
    3.4533   -1.8016    0.0000 C   0  0  0  0  0  0  0  0  0  0  0  0
    3.1984   -2.5862    0.0000 C   0  0  1  0  0  0  0  0  0  0  0  0
    4.0153   -2.7011    0.0000 C   0  0  0  0  0  0  0  0  0  0  0  0
    3.2272   -3.4107    0.0000 N   0  0  0  0  0  0  0  0  0  0  0  0
    3.9556   -3.7981    0.0000 C   0  0  0  0  0  0  0  0  0  0  0  0
    4.6552   -3.3609    0.0000 O   0  0  0  0  0  0  0  0  0  0  0  0
    3.9844   -4.6226    0.0000 C   0  0  0  0  0  0  0  0  0  0  0  0
    4.7128   -5.0099    0.0000 C   0  0  0  0  0  0  0  0  0  0  0  0
    5.4124   -4.5727    0.0000 Cl  0  0  0  0  0  0  0  0  0  0  0  0
    4.7416   -5.8344    0.0000 C   0  0  0  0  0  0  0  0  0  0  0  0
    4.0420   -6.2715    0.0000 C   0  0  0  0  0  0  0  0  0  0  0  0
    4.0708   -7.0960    0.0000 N   0  0  0  0  0  0  0  0  0  0  0  0
    4.7547   -7.5574    0.0000 C   0  0  0  0  0  0  0  0  0  0  0  0
    4.5273   -8.3504    0.0000 N   0  0  0  0  0  0  0  0  0  0  0  0
    3.7028   -8.3792    0.0000 C   0  0  0  0  0  0  0  0  0  0  0  0
    3.2415   -9.0632    0.0000 C   0  0  0  0  0  0  0  0  0  0  0  0
    3.4206   -7.6040    0.0000 N   0  0  0  0  0  0  0  0  0  0  0  0
    3.3135   -5.8842    0.0000 C   0  0  0  0  0  0  0  0  0  0  0  0
    3.2847   -5.0597    0.0000 C   0  0  0  0  0  0  0  0  0  0  0  0
    2.5563   -4.6724    0.0000 Cl  0  0  0  0  0  0  0  0  0  0  0  0
    2.3914   -2.7578    0.0000 C   0  0  0  0  0  0  0  0  0  0  0  0
  1  2  1  0  0  0  0
  2  3  4  0  0  0  0
  3  4  4  0  0  0  0
  4  5  4  0  0  0  0
  5  6  4  0  0  0  0
  6  7  4  0  0  0  0
  7  8  4  0  0  0  0
  8  9  4  0  0  0  0
  5  9  4  0  0  0  0
  9 10  4  0  0  0  0
  2 10  4  0  0  0  0
  7 11  1  0  0  0  0
 11 12  1  0  0  0  0
 12 13  1  0  0  0  0
 13 14  1  6  0  0  0
 13 15  1  1  0  0  0
 15 16  1  0  0  0  0
 16 17  2  0  0  0  0
 16 18  1  0  0  0  0
 18 19  4  0  0  0  0
 19 20  1  0  0  0  0
 19 21  4  0  0  0  0
 21 22  4  0  0  0  0
 22 23  1  0  0  0  0
 23 24  4  0  0  0  0
 24 25  4  0  0  0  0
 25 26  4  0  0  0  0
 26 27  1  0  0  0  0
 26 28  4  0  0  0  0
 23 28  4  0  0  0  0
 22 29  4  0  0  0  0
 29 30  4  0  0  0  0
 18 30  4  0  0  0  0
 30 31  1  0  0  0  0
 13 32  1  0  0  0  0
  6 32  1  0  0  0  0
M  END
>  <CdId>
358671

>  <Mol Weight>
469.366

>  <Formula>
C23H22Cl2N6O

>  <cmpd_chemblid>
CHEMBL3628830

>  <std_type>
Ki

>  <std_value>
10.2

>  <std_unit>
nM

>  <target_id>
CHEMBL2016

>  <target_name>
Coagulation factor IX

>  <organism>
Homo sapiens

>  <target_type>
SINGLE PROTEIN

$$$$

  Mrv0541 08052111042D          

 34 38  0  0  1  0            999 V2000
    0.9636    9.5977    0.0000 C   0  0  0  0  0  0  0  0  0  0  0  0
    0.6280    8.8440    0.0000 N   0  0  0  0  0  0  0  0  0  0  0  0
    1.1129    8.1766    0.0000 C   0  0  0  0  0  0  0  0  0  0  0  0
    0.7774    7.4229    0.0000 C   0  0  0  0  0  0  0  0  0  0  0  0
    1.2623    6.7555    0.0000 C   0  0  0  0  0  0  0  0  0  0  0  0
    2.0828    6.8417    0.0000 C   0  0  0  0  0  0  0  0  0  0  0  0
    2.5677    6.1743    0.0000 C   0  0  0  0  0  0  0  0  0  0  0  0
    2.2321    5.4206    0.0000 C   0  0  0  0  0  0  0  0  0  0  0  0
    2.7171    4.7532    0.0000 C   0  0  0  0  0  0  0  0  0  0  0  0
    3.5375    4.8394    0.0000 O   0  0  0  0  0  0  0  0  0  0  0  0
    2.3815    3.9995    0.0000 N   0  0  0  0  0  0  0  0  0  0  0  0
    2.8664    3.3320    0.0000 C   0  0  2  0  0  0  0  0  0  0  0  0
    3.6914    3.3320    0.0000 C   0  0  0  0  0  0  0  0  0  0  0  0
    3.9464    2.5474    0.0000 C   0  0  0  0  0  0  0  0  0  0  0  0
    3.2789    2.0625    0.0000 N   0  0  0  0  0  0  0  0  0  0  0  0
    3.2789    1.2375    0.0000 C   0  0  0  0  0  0  0  0  0  0  0  0
    3.9934    0.8250    0.0000 N   0  0  0  0  0  0  0  0  0  0  0  0
    3.9934    0.0000    0.0000 C   0  0  0  0  0  0  0  0  0  0  0  0
    3.2789   -0.4125    0.0000 C   0  0  0  0  0  0  0  0  0  0  0  0
    3.2789   -1.2375    0.0000 Cl  0  0  0  0  0  0  0  0  0  0  0  0
    2.5645    0.0000    0.0000 C   0  0  0  0  0  0  0  0  0  0  0  0
    1.7798   -0.2549    0.0000 C   0  0  0  0  0  0  0  0  0  0  0  0
    1.5249   -1.0396    0.0000 N   0  0  0  0  0  0  0  0  0  0  0  0
    1.2949    0.4125    0.0000 N   0  0  0  0  0  0  0  0  0  0  0  0
    1.7798    1.0799    0.0000 O   0  0  0  0  0  0  0  0  0  0  0  0
    2.5645    0.8250    0.0000 C   0  0  0  0  0  0  0  0  0  0  0  0
    2.6115    2.5474    0.0000 C   0  0  0  0  0  0  0  0  0  0  0  0
    1.4117    5.3344    0.0000 C   0  0  0  0  0  0  0  0  0  0  0  0
    1.0761    4.5807    0.0000 Cl  0  0  0  0  0  0  0  0  0  0  0  0
    0.9267    6.0018    0.0000 C   0  0  0  0  0  0  0  0  0  0  0  0
   -0.0431    7.3367    0.0000 C   0  0  0  0  0  0  0  0  0  0  0  0
   -0.5280    8.0041    0.0000 N   0  0  0  0  0  0  0  0  0  0  0  0
   -0.1925    8.7578    0.0000 C   0  0  0  0  0  0  0  0  0  0  0  0
   -0.6774    9.4252    0.0000 O   0  0  0  0  0  0  0  0  0  0  0  0
  1  2  1  0  0  0  0
  2  3  4  0  0  0  0
  3  4  4  0  0  0  0
  4  5  1  0  0  0  0
  5  6  4  0  0  0  0
  6  7  4  0  0  0  0
  7  8  4  0  0  0  0
  8  9  1  0  0  0  0
  9 10  2  0  0  0  0
  9 11  1  0  0  0  0
 12 11  1  6  0  0  0
 12 13  1  0  0  0  0
 13 14  1  0  0  0  0
 14 15  1  0  0  0  0
 15 16  1  0  0  0  0
 16 17  4  0  0  0  0
 17 18  4  0  0  0  0
 18 19  4  0  0  0  0
 19 20  1  0  0  0  0
 19 21  4  0  0  0  0
 21 22  4  0  0  0  0
 22 23  1  0  0  0  0
 22 24  4  0  0  0  0
 24 25  4  0  0  0  0
 25 26  4  0  0  0  0
 16 26  4  0  0  0  0
 21 26  4  0  0  0  0
 15 27  1  0  0  0  0
 12 27  1  0  0  0  0
  8 28  4  0  0  0  0
 28 29  1  0  0  0  0
 28 30  4  0  0  0  0
  5 30  4  0  0  0  0
  4 31  4  0  0  0  0
 31 32  4  0  0  0  0
 32 33  4  0  0  0  0
  2 33  4  0  0  0  0
 33 34  2  0  0  0  0
M  END
>  <CdId>
358672

>  <Mol Weight>
500.337

>  <Formula>
C22H19Cl2N7O3

>  <cmpd_chemblid>
CHEMBL4074983

>  <std_type>
Ki

>  <std_value>
18.0

>  <std_unit>
nM

>  <target_id>
CHEMBL2016

>  <target_name>
Coagulation factor IX

>  <organism>
Homo sapiens

>  <target_type>
SINGLE PROTEIN

$$$$

  Mrv0541 08052111042D          

 40 44  0  0  1  0            999 V2000
    3.9849    3.9849    0.0000 C   0  0  0  0  0  0  0  0  0  0  0  0
    4.3974    3.2704    0.0000 C   0  0  0  0  0  0  0  0  0  0  0  0
    5.2224    3.2704    0.0000 C   0  0  0  0  0  0  0  0  0  0  0  0
    5.6349    2.5559    0.0000 C   0  0  0  0  0  0  0  0  0  0  0  0
    6.4599    2.5559    0.0000 C   0  0  0  0  0  0  0  0  0  0  0  0
    6.8724    1.8414    0.0000 C   0  0  2  0  0  0  0  0  0  0  0  0
    7.6974    1.8414    0.0000 N   0  0  0  0  0  0  0  0  0  0  0  0
    8.1099    2.5559    0.0000 C   0  0  0  0  0  0  0  0  0  0  0  0
    8.9349    2.5559    0.0000 C   0  0  0  0  0  0  0  0  0  0  0  0
    9.3474    1.8414    0.0000 C   0  0  0  0  0  0  0  0  0  0  0  0
   10.1724    1.8414    0.0000 C   0  0  0  0  0  0  0  0  0  0  0  0
   10.5849    2.5559    0.0000 C   0  0  0  0  0  0  0  0  0  0  0  0
   10.1724    3.2704    0.0000 Br  0  0  0  0  0  0  0  0  0  0  0  0
   11.4099    2.5559    0.0000 C   0  0  0  0  0  0  0  0  0  0  0  0
   11.8224    1.8414    0.0000 C   0  0  0  0  0  0  0  0  0  0  0  0
   11.4099    1.1270    0.0000 C   0  0  0  0  0  0  0  0  0  0  0  0
   11.8224    0.4125    0.0000 Cl  0  0  0  0  0  0  0  0  0  0  0  0
   10.5849    1.1270    0.0000 C   0  0  0  0  0  0  0  0  0  0  0  0
   10.1724    0.4125    0.0000 F   0  0  0  0  0  0  0  0  0  0  0  0
    8.9349    1.1270    0.0000 C   0  0  0  0  0  0  0  0  0  0  0  0
    8.1099    1.1270    0.0000 C   0  0  0  0  0  0  0  0  0  0  0  0
    7.6974    0.4125    0.0000 O   0  0  0  0  0  0  0  0  0  0  0  0
    6.4599    1.1270    0.0000 C   0  0  0  0  0  0  0  0  0  0  0  0
    5.6349    1.1270    0.0000 C   0  0  0  0  0  0  0  0  0  0  0  0
    5.2224    0.4125    0.0000 C   0  0  0  0  0  0  0  0  0  0  0  0
    5.6349   -0.3020    0.0000 C   0  0  0  0  0  0  0  0  0  0  0  0
    6.4599   -0.3020    0.0000 C   0  0  0  0  0  0  0  0  0  0  0  0
    6.8724    0.4125    0.0000 N   0  0  0  0  0  0  0  0  0  0  0  0
    4.3974    0.4125    0.0000 C   0  0  0  0  0  0  0  0  0  0  0  0
    3.9849   -0.3020    0.0000 C   0  0  0  0  0  0  0  0  0  0  0  0
    3.1599   -0.3020    0.0000 C   0  0  0  0  0  0  0  0  0  0  0  0
    2.7474    0.4125    0.0000 C   0  0  0  0  0  0  0  0  0  0  0  0
    1.9224    0.4125    0.0000 C   0  0  0  0  0  0  0  0  0  0  0  0
    1.5099   -0.3020    0.0000 N   0  0  0  0  0  0  0  0  0  0  0  0
    1.5099    1.1270    0.0000 O   0  0  0  0  0  0  0  0  0  0  0  0
    3.1599    1.1270    0.0000 C   0  0  0  0  0  0  0  0  0  0  0  0
    3.9849    1.1270    0.0000 C   0  0  0  0  0  0  0  0  0  0  0  0
    4.3974    1.8414    0.0000 N   0  0  0  0  0  0  0  0  0  0  0  0
    3.9849    2.5559    0.0000 C   0  0  0  0  0  0  0  0  0  0  0  0
    3.1599    2.5559    0.0000 O   0  0  0  0  0  0  0  0  0  0  0  0
  1  2  1  0  0  0  0
  2  3  1  0  0  0  0
  3  4  1  0  0  0  0
  4  5  1  0  0  0  0
  5  6  1  0  0  0  0
  6  7  1  6  0  0  0
  7  8  1  0  0  0  0
  8  9  1  0  0  0  0
  9 10  1  0  0  0  0
 10 11  1  0  0  0  0
 11 12  4  0  0  0  0
 12 13  1  0  0  0  0
 12 14  4  0  0  0  0
 14 15  4  0  0  0  0
 15 16  4  0  0  0  0
 16 17  1  0  0  0  0
 16 18  4  0  0  0  0
 11 18  4  0  0  0  0
 18 19  1  0  0  0  0
 10 20  2  0  0  0  0
 20 21  1  0  0  0  0
  7 21  1  0  0  0  0
 21 22  2  0  0  0  0
  6 23  1  0  0  0  0
 23 24  4  0  0  0  0
 24 25  4  0  0  0  0
 25 26  4  0  0  0  0
 26 27  4  0  0  0  0
 27 28  4  0  0  0  0
 23 28  4  0  0  0  0
 25 29  1  0  0  0  0
 29 30  4  0  0  0  0
 30 31  4  0  0  0  0
 31 32  4  0  0  0  0
 32 33  1  0  0  0  0
 33 34  1  0  0  0  0
 33 35  2  0  0  0  0
 32 36  4  0  0  0  0
 36 37  4  0  0  0  0
 29 37  4  0  0  0  0
 37 38  1  0  0  0  0
 38 39  1  0  0  0  0
  2 39  1  0  0  0  0
 39 40  2  0  0  0  0
M  END
>  <CdId>
358673

>  <Mol Weight>
625.916

>  <Formula>
C30H27BrClFN4O3

>  <cmpd_chemblid>
CHEMBL3957332

>  <std_type>
Ki

>  <std_value>
2.88

>  <std_unit>
nM

>  <target_id>
CHEMBL2016

>  <target_name>
Coagulation factor IX

>  <organism>
Homo sapiens

>  <target_type>
SINGLE PROTEIN

$$$$

  Mrv0541 08052111042D          

 41 43  0  0  1  0            999 V2000
   -2.7602    2.3367    0.0000 C   0  0  0  0  0  0  0  0  0  0  0  0
   -2.2082    1.7237    0.0000 C   0  0  0  0  0  0  0  0  0  0  0  0
   -2.4631    0.9390    0.0000 N   0  0  0  0  0  0  0  0  0  0  0  0
   -1.9111    0.3259    0.0000 C   0  0  0  0  0  0  0  0  0  0  0  0
   -1.1041    0.4975    0.0000 O   0  0  0  0  0  0  0  0  0  0  0  0
   -2.1660   -0.4587    0.0000 C   0  0  2  0  0  0  0  0  0  0  0  0
   -2.9730   -0.6302    0.0000 C   0  0  0  0  0  0  0  0  0  0  0  0
   -3.2279   -1.4148    0.0000 C   0  0  0  0  0  0  0  0  0  0  0  0
   -2.6759   -2.0279    0.0000 C   0  0  0  0  0  0  0  0  0  0  0  0
   -1.8689   -1.8564    0.0000 C   0  0  0  0  0  0  0  0  0  0  0  0
   -1.6140   -1.0718    0.0000 C   0  0  0  0  0  0  0  0  0  0  0  0
   -0.8070   -0.9003    0.0000 N   0  0  0  0  0  0  0  0  0  0  0  0
   -0.5521   -0.1156    0.0000 C   0  0  0  0  0  0  0  0  0  0  0  0
   -0.6383    0.7049    0.0000 O   0  0  0  0  0  0  0  0  0  0  0  0
    0.2549    0.0559    0.0000 C   0  0  0  0  0  0  0  0  0  0  0  0
    0.8069   -0.5572    0.0000 C   0  0  0  0  0  0  0  0  0  0  0  0
    0.5520   -1.3418    0.0000 C   0  0  0  0  0  0  0  0  0  0  0  0
    1.1040   -1.9549    0.0000 C   0  0  0  0  0  0  0  0  0  0  0  0
    0.8491   -2.7395    0.0000 C   0  0  0  0  0  0  0  0  0  0  0  0
    0.0421   -2.9111    0.0000 C   0  0  0  0  0  0  0  0  0  0  0  0
   -0.5099   -2.2980    0.0000 C   0  0  0  0  0  0  0  0  0  0  0  0
   -0.2550   -1.5133    0.0000 C   0  0  0  0  0  0  0  0  0  0  0  0
    0.5098    0.8405    0.0000 C   0  0  0  0  0  0  0  0  0  0  0  0
    0.0249    1.5080    0.0000 C   0  0  0  0  0  0  0  0  0  0  0  0
    0.5098    2.1754    0.0000 S   0  0  0  0  0  0  0  0  0  0  0  0
    1.2944    1.9205    0.0000 C   0  0  0  0  0  0  0  0  0  0  0  0
    2.0089    2.3330    0.0000 C   0  0  0  0  0  0  0  0  0  0  0  0
    2.7234    1.9205    0.0000 C   0  0  0  0  0  0  0  0  0  0  0  0
    2.7234    1.0955    0.0000 C   0  0  0  0  0  0  0  0  0  0  0  0
    3.4379    0.6830    0.0000 C   0  0  0  0  0  0  0  0  0  0  0  0
    3.4379   -0.1420    0.0000 N   0  0  0  0  0  0  0  0  0  0  0  0
    4.1523    1.0955    0.0000 N   0  0  0  0  0  0  0  0  0  0  0  0
    2.0089    0.6830    0.0000 C   0  0  0  0  0  0  0  0  0  0  0  0
    1.2944    1.0955    0.0000 C   0  0  0  0  0  0  0  0  0  0  0  0
    6.2664   -0.8839    0.0000 O   0  0  0  0  0  0  0  0  0  0  0  0
    6.9809   -0.4714    0.0000 C   0  0  0  0  0  0  0  0  0  0  0  0
    7.6954   -0.8839    0.0000 O   0  0  0  0  0  0  0  0  0  0  0  0
    6.9809    0.3536    0.0000 C   0  0  0  0  0  0  0  0  0  0  0  0
    6.9809    1.1786    0.0000 F   0  0  0  0  0  0  0  0  0  0  0  0
    7.8059    0.3536    0.0000 F   0  0  0  0  0  0  0  0  0  0  0  0
    6.1559    0.3536    0.0000 F   0  0  0  0  0  0  0  0  0  0  0  0
  1  2  1  0  0  0  0
  2  3  1  0  0  0  0
  3  4  1  0  0  0  0
  4  5  2  0  0  0  0
  6  4  1  1  0  0  0
  6  7  1  0  0  0  0
  7  8  1  0  0  0  0
  8  9  1  0  0  0  0
  9 10  1  0  0  0  0
 10 11  1  0  0  0  0
  6 11  1  0  0  0  0
 11 12  1  0  0  0  0
 12 13  1  0  0  0  0
 13 14  2  0  0  0  0
 13 15  1  0  0  0  0
 15 16  1  0  0  0  0
 16 17  1  0  0  0  0
 17 18  4  0  0  0  0
 18 19  4  0  0  0  0
 19 20  4  0  0  0  0
 20 21  4  0  0  0  0
 21 22  4  0  0  0  0
 17 22  4  0  0  0  0
 15 23  1  0  0  0  0
 23 24  4  0  0  0  0
 24 25  4  0  0  0  0
 25 26  4  0  0  0  0
 26 27  4  0  0  0  0
 27 28  4  0  0  0  0
 28 29  4  0  0  0  0
 29 30  1  0  0  0  0
 30 31  2  0  0  0  0
 30 32  1  0  0  0  0
 29 33  4  0  0  0  0
 33 34  4  0  0  0  0
 23 34  4  0  0  0  0
 26 34  4  0  0  0  0
 35 36  2  0  0  0  0
 36 37  1  0  0  0  0
 36 38  1  0  0  0  0
 38 39  1  0  0  0  0
 38 40  1  0  0  0  0
 38 41  1  0  0  0  0
M  END
>  <CdId>
358674

>  <Mol Weight>
590.657

>  <Formula>
C29H33F3N4O4S

>  <cmpd_chemblid>
CHEMBL361374

>  <std_type>
Ki

>  <std_value>
430.0

>  <std_unit>
nM

>  <target_id>
CHEMBL2016

>  <target_name>
Coagulation factor IX

>  <organism>
Homo sapiens

>  <target_type>
SINGLE PROTEIN

$$$$

  Mrv0541 08052111042D          

 36 40  0  0  1  0            999 V2000
    3.9849    3.9849    0.0000 C   0  0  0  0  0  0  0  0  0  0  0  0
    4.3974    3.2704    0.0000 C   0  0  2  0  0  0  0  0  0  0  0  0
    5.2224    3.2704    0.0000 C   0  0  0  0  0  0  0  0  0  0  0  0
    5.6349    2.5559    0.0000 C   0  0  0  0  0  0  0  0  0  0  0  0
    6.4599    2.5559    0.0000 C   0  0  0  0  0  0  0  0  0  0  0  0
    6.8724    1.8414    0.0000 C   0  0  2  0  0  0  0  0  0  0  0  0
    7.6974    1.8414    0.0000 N   0  0  0  0  0  0  0  0  0  0  0  0
    8.1099    2.5559    0.0000 C   0  0  0  0  0  0  0  0  0  0  0  0
    8.9349    2.5559    0.0000 C   0  0  0  0  0  0  0  0  0  0  0  0
    9.3474    1.8414    0.0000 C   0  0  0  0  0  0  0  0  0  0  0  0
   10.1724    1.8414    0.0000 C   0  0  0  0  0  0  0  0  0  0  0  0
   10.5849    2.5559    0.0000 C   0  0  0  0  0  0  0  0  0  0  0  0
   11.4099    2.5559    0.0000 C   0  0  0  0  0  0  0  0  0  0  0  0
   11.8224    1.8414    0.0000 C   0  0  0  0  0  0  0  0  0  0  0  0
   11.4099    1.1270    0.0000 C   0  0  0  0  0  0  0  0  0  0  0  0
   11.8224    0.4125    0.0000 Cl  0  0  0  0  0  0  0  0  0  0  0  0
   10.5849    1.1270    0.0000 C   0  0  0  0  0  0  0  0  0  0  0  0
   10.1724    0.4125    0.0000 F   0  0  0  0  0  0  0  0  0  0  0  0
    8.9349    1.1270    0.0000 C   0  0  0  0  0  0  0  0  0  0  0  0
    8.1099    1.1270    0.0000 C   0  0  0  0  0  0  0  0  0  0  0  0
    7.6974    0.4125    0.0000 O   0  0  0  0  0  0  0  0  0  0  0  0
    6.4599    1.1270    0.0000 C   0  0  0  0  0  0  0  0  0  0  0  0
    5.6349    1.1270    0.0000 C   0  0  0  0  0  0  0  0  0  0  0  0
    5.2224    0.4125    0.0000 C   0  0  0  0  0  0  0  0  0  0  0  0
    5.6349   -0.3020    0.0000 C   0  0  0  0  0  0  0  0  0  0  0  0
    6.4599   -0.3020    0.0000 C   0  0  0  0  0  0  0  0  0  0  0  0
    6.8724    0.4125    0.0000 N   0  0  0  0  0  0  0  0  0  0  0  0
    4.3974    0.4125    0.0000 C   0  0  0  0  0  0  0  0  0  0  0  0
    3.9849   -0.3020    0.0000 C   0  0  0  0  0  0  0  0  0  0  0  0
    3.1599   -0.3020    0.0000 C   0  0  0  0  0  0  0  0  0  0  0  0
    2.7474    0.4125    0.0000 C   0  0  0  0  0  0  0  0  0  0  0  0
    3.1599    1.1270    0.0000 C   0  0  0  0  0  0  0  0  0  0  0  0
    3.9849    1.1270    0.0000 C   0  0  0  0  0  0  0  0  0  0  0  0
    4.3974    1.8414    0.0000 N   0  0  0  0  0  0  0  0  0  0  0  0
    3.9849    2.5559    0.0000 C   0  0  0  0  0  0  0  0  0  0  0  0
    3.1599    2.5559    0.0000 O   0  0  0  0  0  0  0  0  0  0  0  0
  2  1  1  6  0  0  0
  2  3  1  0  0  0  0
  3  4  1  0  0  0  0
  4  5  1  0  0  0  0
  5  6  1  0  0  0  0
  6  7  1  6  0  0  0
  7  8  1  0  0  0  0
  8  9  1  0  0  0  0
  9 10  1  0  0  0  0
 10 11  1  0  0  0  0
 11 12  4  0  0  0  0
 12 13  4  0  0  0  0
 13 14  4  0  0  0  0
 14 15  4  0  0  0  0
 15 16  1  0  0  0  0
 15 17  4  0  0  0  0
 11 17  4  0  0  0  0
 17 18  1  0  0  0  0
 10 19  2  0  0  0  0
 19 20  1  0  0  0  0
  7 20  1  0  0  0  0
 20 21  2  0  0  0  0
  6 22  1  0  0  0  0
 22 23  4  0  0  0  0
 23 24  4  0  0  0  0
 24 25  4  0  0  0  0
 25 26  4  0  0  0  0
 26 27  4  0  0  0  0
 22 27  4  0  0  0  0
 24 28  1  0  0  0  0
 28 29  4  0  0  0  0
 29 30  4  0  0  0  0
 30 31  4  0  0  0  0
 31 32  4  0  0  0  0
 32 33  4  0  0  0  0
 28 33  4  0  0  0  0
 33 34  1  0  0  0  0
 34 35  1  0  0  0  0
  2 35  1  0  0  0  0
 35 36  2  0  0  0  0
M  END
>  <CdId>
358675

>  <Mol Weight>
503.995

>  <Formula>
C29H27ClFN3O2

>  <cmpd_chemblid>
CHEMBL4107925

>  <std_type>
Ki

>  <std_value>
86.27

>  <std_unit>
nM

>  <target_id>
CHEMBL2016

>  <target_name>
Coagulation factor IX

>  <organism>
Homo sapiens

>  <target_type>
SINGLE PROTEIN

$$$$

  Mrv0541 08052111042D          

 33 36  0  0  1  0            999 V2000
   -4.2868   -5.7750    0.0000 C   0  0  0  0  0  0  0  0  0  0  0  0
   -4.2868   -4.9500    0.0000 O   0  0  0  0  0  0  0  0  0  0  0  0
   -3.5724   -4.5375    0.0000 C   0  0  0  0  0  0  0  0  0  0  0  0
   -3.5724   -3.7125    0.0000 C   0  0  0  0  0  0  0  0  0  0  0  0
   -2.8579   -3.3000    0.0000 C   0  0  0  0  0  0  0  0  0  0  0  0
   -2.1434   -3.7125    0.0000 C   0  0  0  0  0  0  0  0  0  0  0  0
   -1.4289   -3.3000    0.0000 N   0  0  0  0  0  0  0  0  0  0  0  0
   -0.7145   -3.7125    0.0000 C   0  0  0  0  0  0  0  0  0  0  0  0
   -0.7145   -4.5375    0.0000 O   0  0  0  0  0  0  0  0  0  0  0  0
    0.0000   -3.3000    0.0000 O   0  0  0  0  0  0  0  0  0  0  0  0
    0.7145   -3.7125    0.0000 C   0  0  0  0  0  0  0  0  0  0  0  0
    1.4289   -3.3000    0.0000 C   0  0  1  0  0  0  0  0  0  0  0  0
    2.1434   -3.7125    0.0000 O   0  0  0  0  0  0  0  0  0  0  0  0
    2.8579   -3.3000    0.0000 C   0  0  0  0  0  0  0  0  0  0  0  0
    2.8579   -2.4750    0.0000 C   0  0  0  0  0  0  0  0  0  0  0  0
    3.5724   -2.0625    0.0000 C   0  0  0  0  0  0  0  0  0  0  0  0
    4.2868   -2.4750    0.0000 C   0  0  0  0  0  0  0  0  0  0  0  0
    4.2868   -3.3000    0.0000 C   0  0  0  0  0  0  0  0  0  0  0  0
    4.8999   -3.8520    0.0000 S   0  0  0  0  0  0  0  0  0  0  0  0
    4.5644   -4.6057    0.0000 C   0  0  0  0  0  0  0  0  0  0  0  0
    4.9769   -5.3202    0.0000 C   0  0  0  0  0  0  0  0  0  0  0  0
    5.8019   -5.3202    0.0000 N   0  0  0  0  0  0  0  0  0  0  0  0
    4.5644   -6.0346    0.0000 N   0  0  0  0  0  0  0  0  0  0  0  0
    3.7439   -4.5195    0.0000 C   0  0  0  0  0  0  0  0  0  0  0  0
    3.5724   -3.7125    0.0000 C   0  0  0  0  0  0  0  0  0  0  0  0
    1.4289   -2.4750    0.0000 C   0  0  0  0  0  0  0  0  0  0  0  0
    0.7145   -2.0625    0.0000 C   0  0  0  0  0  0  0  0  0  0  0  0
    0.7145   -1.2375    0.0000 C   0  0  0  0  0  0  0  0  0  0  0  0
    1.4289   -0.8250    0.0000 C   0  0  0  0  0  0  0  0  0  0  0  0
    2.1434   -1.2375    0.0000 C   0  0  0  0  0  0  0  0  0  0  0  0
    2.1434   -2.0625    0.0000 C   0  0  0  0  0  0  0  0  0  0  0  0
   -2.1434   -4.5375    0.0000 C   0  0  0  0  0  0  0  0  0  0  0  0
   -2.8579   -4.9500    0.0000 C   0  0  0  0  0  0  0  0  0  0  0  0
  1  2  1  0  0  0  0
  2  3  1  0  0  0  0
  3  4  4  0  0  0  0
  4  5  4  0  0  0  0
  5  6  4  0  0  0  0
  6  7  1  0  0  0  0
  7  8  1  0  0  0  0
  8  9  2  0  0  0  0
  8 10  1  0  0  0  0
 10 11  1  0  0  0  0
 11 12  1  0  0  0  0
 12 13  1  6  0  0  0
 13 14  1  0  0  0  0
 14 15  4  0  0  0  0
 15 16  4  0  0  0  0
 16 17  4  0  0  0  0
 17 18  4  0  0  0  0
 18 19  4  0  0  0  0
 19 20  4  0  0  0  0
 20 21  1  0  0  0  0
 21 22  2  0  0  0  0
 21 23  1  0  0  0  0
 20 24  4  0  0  0  0
 24 25  4  0  0  0  0
 14 25  4  0  0  0  0
 18 25  4  0  0  0  0
 12 26  1  0  0  0  0
 26 27  4  0  0  0  0
 27 28  4  0  0  0  0
 28 29  4  0  0  0  0
 29 30  4  0  0  0  0
 30 31  4  0  0  0  0
 26 31  4  0  0  0  0
  6 32  4  0  0  0  0
 32 33  4  0  0  0  0
  3 33  4  0  0  0  0
M  END
>  <CdId>
358678

>  <Mol Weight>
461.533

>  <Formula>
C25H23N3O4S

>  <cmpd_chemblid>
CHEMBL604294

>  <std_type>
Ki

>  <std_value>
35.0

>  <std_unit>
nM

>  <target_id>
CHEMBL2016

>  <target_name>
Coagulation factor IX

>  <organism>
Homo sapiens

>  <target_type>
SINGLE PROTEIN

$$$$

  Mrv0541 08052111042D          

 31 34  0  0  0  0            999 V2000
   -5.3649   -1.3480    0.0000 N   0  0  0  0  0  0  0  0  0  0  0  0
   -4.9524   -2.0625    0.0000 C   0  0  0  0  0  0  0  0  0  0  0  0
   -5.3649   -2.7770    0.0000 N   0  0  0  0  0  0  0  0  0  0  0  0
   -4.1274   -2.0625    0.0000 C   0  0  0  0  0  0  0  0  0  0  0  0
   -3.6425   -1.3951    0.0000 C   0  0  0  0  0  0  0  0  0  0  0  0
   -2.8579   -1.6500    0.0000 C   0  0  0  0  0  0  0  0  0  0  0  0
   -2.1434   -1.2375    0.0000 C   0  0  0  0  0  0  0  0  0  0  0  0
   -2.1434   -0.4125    0.0000 O   0  0  0  0  0  0  0  0  0  0  0  0
   -1.4289   -0.0000    0.0000 C   0  0  0  0  0  0  0  0  0  0  0  0
   -0.7145   -0.4125    0.0000 C   0  0  0  0  0  0  0  0  0  0  0  0
    0.0000   -0.0000    0.0000 O   0  0  0  0  0  0  0  0  0  0  0  0
    0.7145   -0.4125    0.0000 C   0  0  0  0  0  0  0  0  0  0  0  0
    0.7145   -1.2375    0.0000 O   0  0  0  0  0  0  0  0  0  0  0  0
    1.4289   -0.0000    0.0000 N   0  0  0  0  0  0  0  0  0  0  0  0
    2.1434   -0.4125    0.0000 C   0  0  0  0  0  0  0  0  0  0  0  0
    2.8579   -0.0000    0.0000 C   0  0  0  0  0  0  0  0  0  0  0  0
    3.5724   -0.4125    0.0000 C   0  0  0  0  0  0  0  0  0  0  0  0
    3.5724   -1.2375    0.0000 C   0  0  0  0  0  0  0  0  0  0  0  0
    2.8579   -1.6500    0.0000 C   0  0  0  0  0  0  0  0  0  0  0  0
    2.1434   -1.2375    0.0000 C   0  0  0  0  0  0  0  0  0  0  0  0
   -1.4289    0.8250    0.0000 C   0  0  0  0  0  0  0  0  0  0  0  0
   -2.1434    1.2375    0.0000 C   0  0  0  0  0  0  0  0  0  0  0  0
   -2.1434    2.0625    0.0000 C   0  0  0  0  0  0  0  0  0  0  0  0
   -1.4289    2.4750    0.0000 C   0  0  0  0  0  0  0  0  0  0  0  0
   -0.7145    2.0625    0.0000 C   0  0  0  0  0  0  0  0  0  0  0  0
   -0.7145    1.2375    0.0000 C   0  0  0  0  0  0  0  0  0  0  0  0
   -1.4289   -1.6500    0.0000 C   0  0  0  0  0  0  0  0  0  0  0  0
   -1.4289   -2.4750    0.0000 C   0  0  0  0  0  0  0  0  0  0  0  0
   -2.1434   -2.8875    0.0000 C   0  0  0  0  0  0  0  0  0  0  0  0
   -2.8579   -2.4750    0.0000 C   0  0  0  0  0  0  0  0  0  0  0  0
   -3.6425   -2.7299    0.0000 S   0  0  0  0  0  0  0  0  0  0  0  0
  1  2  2  0  0  0  0
  2  3  1  0  0  0  0
  2  4  1  0  0  0  0
  4  5  4  0  0  0  0
  5  6  4  0  0  0  0
  6  7  4  0  0  0  0
  7  8  1  0  0  0  0
  8  9  1  0  0  0  0
  9 10  1  0  0  0  0
 10 11  1  0  0  0  0
 11 12  1  0  0  0  0
 12 13  2  0  0  0  0
 12 14  1  0  0  0  0
 14 15  1  0  0  0  0
 15 16  4  0  0  0  0
 16 17  4  0  0  0  0
 17 18  4  0  0  0  0
 18 19  4  0  0  0  0
 19 20  4  0  0  0  0
 15 20  4  0  0  0  0
  9 21  1  0  0  0  0
 21 22  4  0  0  0  0
 22 23  4  0  0  0  0
 23 24  4  0  0  0  0
 24 25  4  0  0  0  0
 25 26  4  0  0  0  0
 21 26  4  0  0  0  0
  7 27  4  0  0  0  0
 27 28  4  0  0  0  0
 28 29  4  0  0  0  0
 29 30  4  0  0  0  0
  6 30  4  0  0  0  0
 30 31  4  0  0  0  0
  4 31  4  0  0  0  0
M  END
>  <CdId>
358679

>  <Mol Weight>
431.507

>  <Formula>
C24H21N3O3S

>  <cmpd_chemblid>
CHEMBL598400

>  <std_type>
Ki

>  <std_value>
10.0

>  <std_unit>
nM

>  <target_id>
CHEMBL2016

>  <target_name>
Coagulation factor IX

>  <organism>
Homo sapiens

>  <target_type>
SINGLE PROTEIN

$$$$

  Mrv0541 08052111042D          

 39 44  0  0  1  0            999 V2000
   -1.4066   -1.6301    0.0000 C   0  0  0  0  0  0  0  0  0  0  0  0
   -0.5996   -1.8016    0.0000 C   0  0  0  0  0  0  0  0  0  0  0  0
   -0.3446   -2.5862    0.0000 C   0  0  0  0  0  0  0  0  0  0  0  0
    0.4623   -2.7578    0.0000 C   0  0  0  0  0  0  0  0  0  0  0  0
    1.0144   -2.1447    0.0000 C   0  0  0  0  0  0  0  0  0  0  0  0
    1.8394   -2.1447    0.0000 C   0  0  0  0  0  0  0  0  0  0  0  0
    2.0943   -1.3601    0.0000 C   0  0  0  0  0  0  0  0  0  0  0  0
    1.4269   -0.8751    0.0000 N   0  0  0  0  0  0  0  0  0  0  0  0
    0.7594   -1.3601    0.0000 N   0  0  0  0  0  0  0  0  0  0  0  0
   -0.0476   -1.1885    0.0000 C   0  0  0  0  0  0  0  0  0  0  0  0
    2.9013   -1.1885    0.0000 C   0  0  0  0  0  0  0  0  0  0  0  0
    3.4533   -1.8016    0.0000 C   0  0  0  0  0  0  0  0  0  0  0  0
    3.1984   -2.5862    0.0000 C   0  0  2  0  0  0  0  0  0  0  0  0
    4.0153   -2.7011    0.0000 N   0  0  0  0  0  0  0  0  0  0  0  0
    4.5233   -2.0510    0.0000 C   0  0  0  0  0  0  0  0  0  0  0  0
    4.2142   -1.2860    0.0000 O   0  0  0  0  0  0  0  0  0  0  0  0
    5.3402   -2.1658    0.0000 C   0  0  0  0  0  0  0  0  0  0  0  0
    5.8481   -1.5157    0.0000 C   0  0  0  0  0  0  0  0  0  0  0  0
    5.5391   -0.7507    0.0000 Cl  0  0  0  0  0  0  0  0  0  0  0  0
    6.6651   -1.6305    0.0000 C   0  0  0  0  0  0  0  0  0  0  0  0
    6.9742   -2.3954    0.0000 C   0  0  0  0  0  0  0  0  0  0  0  0
    7.7911   -2.5102    0.0000 N   0  0  0  0  0  0  0  0  0  0  0  0
    8.3642   -1.9168    0.0000 C   0  0  0  0  0  0  0  0  0  0  0  0
    9.1057   -2.2784    0.0000 N   0  0  0  0  0  0  0  0  0  0  0  0
    8.9909   -3.0954    0.0000 C   0  0  0  0  0  0  0  0  0  0  0  0
    9.5844   -3.6685    0.0000 C   0  0  0  0  0  0  0  0  0  0  0  0
    8.1785   -3.2387    0.0000 N   0  0  0  0  0  0  0  0  0  0  0  0
    6.4662   -3.0455    0.0000 C   0  0  0  0  0  0  0  0  0  0  0  0
    5.6493   -2.9307    0.0000 C   0  0  0  0  0  0  0  0  0  0  0  0
    5.1414   -3.5808    0.0000 Cl  0  0  0  0  0  0  0  0  0  0  0  0
    3.2272   -3.4107    0.0000 C   0  0  0  0  0  0  0  0  0  0  0  0
    3.9556   -3.7981    0.0000 C   0  0  0  0  0  0  0  0  0  0  0  0
    3.9844   -4.6226    0.0000 C   0  0  0  0  0  0  0  0  0  0  0  0
    3.2847   -5.0597    0.0000 C   0  0  0  0  0  0  0  0  0  0  0  0
    3.3135   -5.8842    0.0000 F   0  0  0  0  0  0  0  0  0  0  0  0
    2.5563   -4.6724    0.0000 C   0  0  0  0  0  0  0  0  0  0  0  0
    1.8567   -5.1096    0.0000 F   0  0  0  0  0  0  0  0  0  0  0  0
    2.5275   -3.8479    0.0000 C   0  0  0  0  0  0  0  0  0  0  0  0
    2.3914   -2.7578    0.0000 C   0  0  0  0  0  0  0  0  0  0  0  0
  1  2  1  0  0  0  0
  2  3  4  0  0  0  0
  3  4  4  0  0  0  0
  4  5  4  0  0  0  0
  5  6  4  0  0  0  0
  6  7  4  0  0  0  0
  7  8  4  0  0  0  0
  8  9  4  0  0  0  0
  5  9  4  0  0  0  0
  9 10  4  0  0  0  0
  2 10  4  0  0  0  0
  7 11  1  0  0  0  0
 11 12  1  0  0  0  0
 12 13  1  0  0  0  0
 13 14  1  1  0  0  0
 14 15  1  0  0  0  0
 15 16  2  0  0  0  0
 15 17  1  0  0  0  0
 17 18  4  0  0  0  0
 18 19  1  0  0  0  0
 18 20  4  0  0  0  0
 20 21  4  0  0  0  0
 21 22  1  0  0  0  0
 22 23  4  0  0  0  0
 23 24  4  0  0  0  0
 24 25  4  0  0  0  0
 25 26  1  0  0  0  0
 25 27  4  0  0  0  0
 22 27  4  0  0  0  0
 21 28  4  0  0  0  0
 28 29  4  0  0  0  0
 17 29  4  0  0  0  0
 29 30  1  0  0  0  0
 13 31  1  6  0  0  0
 31 32  4  0  0  0  0
 32 33  4  0  0  0  0
 33 34  4  0  0  0  0
 34 35  1  0  0  0  0
 34 36  4  0  0  0  0
 36 37  1  0  0  0  0
 36 38  4  0  0  0  0
 31 38  4  0  0  0  0
 13 39  1  0  0  0  0
  6 39  1  0  0  0  0
M  END
>  <CdId>
358680

>  <Mol Weight>
567.417

>  <Formula>
C28H22Cl2F2N6O

>  <cmpd_chemblid>
CHEMBL3628952

>  <std_type>
Ki

>  <std_value>
10.5

>  <std_unit>
nM

>  <target_id>
CHEMBL2016

>  <target_name>
Coagulation factor IX

>  <organism>
Homo sapiens

>  <target_type>
SINGLE PROTEIN

$$$$

  Mrv0541 08052111042D          

 39 43  0  0  0  0            999 V2000
    4.7812    1.9354    0.0000 N   0  0  0  0  0  0  0  0  0  0  0  0
    4.0668    2.3479    0.0000 C   0  0  0  0  0  0  0  0  0  0  0  0
    4.0668    3.1729    0.0000 N   0  0  0  0  0  0  0  0  0  0  0  0
    3.3523    1.9354    0.0000 C   0  0  0  0  0  0  0  0  0  0  0  0
    3.3523    1.1104    0.0000 C   0  0  0  0  0  0  0  0  0  0  0  0
    2.6378    0.6979    0.0000 C   0  0  0  0  0  0  0  0  0  0  0  0
    1.9233    1.1104    0.0000 C   0  0  0  0  0  0  0  0  0  0  0  0
    1.1387    0.8555    0.0000 N   0  0  0  0  0  0  0  0  0  0  0  0
    0.6538    1.5229    0.0000 C   0  0  0  0  0  0  0  0  0  0  0  0
    1.1387    2.1904    0.0000 C   0  0  0  0  0  0  0  0  0  0  0  0
    0.8838    2.9750    0.0000 C   0  0  0  0  0  0  0  0  0  0  0  0
    0.0768    3.1465    0.0000 C   0  0  0  0  0  0  0  0  0  0  0  0
   -0.1781    3.9312    0.0000 C   0  0  0  0  0  0  0  0  0  0  0  0
   -0.9851    4.1027    0.0000 C   0  0  0  0  0  0  0  0  0  0  0  0
   -1.2400    4.8873    0.0000 C   0  0  0  0  0  0  0  0  0  0  0  0
   -0.6880    5.5004    0.0000 C   0  0  0  0  0  0  0  0  0  0  0  0
    0.1190    5.3289    0.0000 C   0  0  0  0  0  0  0  0  0  0  0  0
    0.3739    4.5442    0.0000 C   0  0  0  0  0  0  0  0  0  0  0  0
    1.4358    3.5881    0.0000 C   0  0  0  0  0  0  0  0  0  0  0  0
    2.2428    3.4166    0.0000 O   0  0  0  0  0  0  0  0  0  0  0  0
    1.1809    4.3727    0.0000 N   0  0  0  0  0  0  0  0  0  0  0  0
    1.7329    4.9858    0.0000 C   0  0  0  0  0  0  0  0  0  0  0  0
    1.4780    5.7704    0.0000 C   0  0  0  0  0  0  0  0  0  0  0  0
    2.0300    6.3835    0.0000 C   0  0  0  0  0  0  0  0  0  0  0  0
    2.8370    6.2120    0.0000 C   0  0  0  0  0  0  0  0  0  0  0  0
    3.3890    6.8251    0.0000 C   0  0  0  0  0  0  0  0  0  0  0  0
    3.1341    7.6097    0.0000 C   0  0  0  0  0  0  0  0  0  0  0  0
    3.6861    8.2228    0.0000 C   0  0  0  0  0  0  0  0  0  0  0  0
    4.4931    8.0513    0.0000 C   0  0  0  0  0  0  0  0  0  0  0  0
    4.7480    7.2667    0.0000 C   0  0  0  0  0  0  0  0  0  0  0  0
    4.1960    6.6536    0.0000 C   0  0  0  0  0  0  0  0  0  0  0  0
    4.4509    5.8689    0.0000 S   0  0  0  0  0  0  0  0  0  0  0  0
    4.7059    5.0843    0.0000 N   0  0  0  0  0  0  0  0  0  0  0  0
    3.6663    5.6140    0.0000 O   0  0  0  0  0  0  0  0  0  0  0  0
    5.2355    6.1239    0.0000 O   0  0  0  0  0  0  0  0  0  0  0  0
    3.0919    5.4274    0.0000 C   0  0  0  0  0  0  0  0  0  0  0  0
    2.5399    4.8143    0.0000 C   0  0  0  0  0  0  0  0  0  0  0  0
    1.9233    1.9354    0.0000 C   0  0  0  0  0  0  0  0  0  0  0  0
    2.6378    2.3479    0.0000 C   0  0  0  0  0  0  0  0  0  0  0  0
  1  2  2  0  0  0  0
  2  3  1  0  0  0  0
  2  4  1  0  0  0  0
  4  5  4  0  0  0  0
  5  6  4  0  0  0  0
  6  7  4  0  0  0  0
  7  8  4  0  0  0  0
  8  9  4  0  0  0  0
  9 10  4  0  0  0  0
 10 11  1  0  0  0  0
 11 12  1  0  0  0  0
 12 13  1  0  0  0  0
 13 14  4  0  0  0  0
 14 15  4  0  0  0  0
 15 16  4  0  0  0  0
 16 17  4  0  0  0  0
 17 18  4  0  0  0  0
 13 18  4  0  0  0  0
 11 19  1  0  0  0  0
 19 20  2  0  0  0  0
 19 21  1  0  0  0  0
 21 22  1  0  0  0  0
 22 23  4  0  0  0  0
 23 24  4  0  0  0  0
 24 25  4  0  0  0  0
 25 26  1  0  0  0  0
 26 27  4  0  0  0  0
 27 28  4  0  0  0  0
 28 29  4  0  0  0  0
 29 30  4  0  0  0  0
 30 31  4  0  0  0  0
 26 31  4  0  0  0  0
 31 32  1  0  0  0  0
 32 33  1  0  0  0  0
 32 34  2  0  0  0  0
 32 35  2  0  0  0  0
 25 36  4  0  0  0  0
 36 37  4  0  0  0  0
 22 37  4  0  0  0  0
 10 38  4  0  0  0  0
  7 38  4  0  0  0  0
 38 39  4  0  0  0  0
  4 39  4  0  0  0  0
M  STY  1   1 DAT
M  SAL   1  1   8
M  SDT   1 MRV_IMPLICIT_H                                        
M  SDD   1     0.0000    0.0000    DR    ALL  0       0  
M  SED   1 IMPL_H1
M  END
>  <CdId>
358681

>  <Mol Weight>
537.632

>  <Formula>
C30H27N5O3S

>  <cmpd_chemblid>
CHEMBL361607

>  <std_type>
Ki

>  <std_value>
660.0

>  <std_unit>
nM

>  <target_id>
CHEMBL2016

>  <target_name>
Coagulation factor IX

>  <organism>
Homo sapiens

>  <target_type>
SINGLE PROTEIN

$$$$

  Mrv0541 08052111042D          

 32 35  0  0  0  0            999 V2000
   -1.6166   -5.0850    0.0000 C   0  0  0  0  0  0  0  0  0  0  0  0
   -2.2296   -4.5330    0.0000 C   0  0  0  0  0  0  0  0  0  0  0  0
   -3.0366   -4.7045    0.0000 N   0  0  0  0  0  0  0  0  0  0  0  0
   -3.4491   -3.9900    0.0000 N   0  0  0  0  0  0  0  0  0  0  0  0
   -2.8971   -3.3769    0.0000 C   0  0  0  0  0  0  0  0  0  0  0  0
   -3.0686   -2.5700    0.0000 C   0  0  0  0  0  0  0  0  0  0  0  0
   -2.1434   -3.7125    0.0000 C   0  0  0  0  0  0  0  0  0  0  0  0
   -1.4289   -3.3000    0.0000 N   0  0  0  0  0  0  0  0  0  0  0  0
   -0.7145   -3.7125    0.0000 C   0  0  0  0  0  0  0  0  0  0  0  0
   -0.7145   -4.5375    0.0000 O   0  0  0  0  0  0  0  0  0  0  0  0
    0.0000   -3.3000    0.0000 O   0  0  0  0  0  0  0  0  0  0  0  0
    0.7145   -3.7125    0.0000 C   0  0  0  0  0  0  0  0  0  0  0  0
    1.4289   -3.3000    0.0000 C   0  0  0  0  0  0  0  0  0  0  0  0
    2.1434   -3.7125    0.0000 O   0  0  0  0  0  0  0  0  0  0  0  0
    2.8579   -3.3000    0.0000 C   0  0  0  0  0  0  0  0  0  0  0  0
    2.8579   -2.4750    0.0000 C   0  0  0  0  0  0  0  0  0  0  0  0
    3.5724   -2.0625    0.0000 C   0  0  0  0  0  0  0  0  0  0  0  0
    4.2868   -2.4750    0.0000 C   0  0  0  0  0  0  0  0  0  0  0  0
    4.2868   -3.3000    0.0000 C   0  0  0  0  0  0  0  0  0  0  0  0
    4.8999   -3.8520    0.0000 S   0  0  0  0  0  0  0  0  0  0  0  0
    4.5644   -4.6057    0.0000 C   0  0  0  0  0  0  0  0  0  0  0  0
    4.9769   -5.3202    0.0000 C   0  0  0  0  0  0  0  0  0  0  0  0
    5.8019   -5.3202    0.0000 N   0  0  0  0  0  0  0  0  0  0  0  0
    4.5644   -6.0346    0.0000 N   0  0  0  0  0  0  0  0  0  0  0  0
    3.7439   -4.5195    0.0000 C   0  0  0  0  0  0  0  0  0  0  0  0
    3.5724   -3.7125    0.0000 C   0  0  0  0  0  0  0  0  0  0  0  0
    1.4289   -2.4750    0.0000 C   0  0  0  0  0  0  0  0  0  0  0  0
    0.7145   -2.0625    0.0000 C   0  0  0  0  0  0  0  0  0  0  0  0
    0.7145   -1.2375    0.0000 C   0  0  0  0  0  0  0  0  0  0  0  0
    1.4289   -0.8250    0.0000 C   0  0  0  0  0  0  0  0  0  0  0  0
    2.1434   -1.2375    0.0000 C   0  0  0  0  0  0  0  0  0  0  0  0
    2.1434   -2.0625    0.0000 C   0  0  0  0  0  0  0  0  0  0  0  0
  1  2  1  0  0  0  0
  2  3  4  0  0  0  0
  3  4  4  0  0  0  0
  4  5  4  0  0  0  0
  5  6  1  0  0  0  0
  5  7  4  0  0  0  0
  2  7  4  0  0  0  0
  7  8  1  0  0  0  0
  8  9  1  0  0  0  0
  9 10  2  0  0  0  0
  9 11  1  0  0  0  0
 11 12  1  0  0  0  0
 12 13  1  0  0  0  0
 13 14  1  0  0  0  0
 14 15  1  0  0  0  0
 15 16  4  0  0  0  0
 16 17  4  0  0  0  0
 17 18  4  0  0  0  0
 18 19  4  0  0  0  0
 19 20  4  0  0  0  0
 20 21  4  0  0  0  0
 21 22  1  0  0  0  0
 22 23  2  0  0  0  0
 22 24  1  0  0  0  0
 21 25  4  0  0  0  0
 25 26  4  0  0  0  0
 15 26  4  0  0  0  0
 19 26  4  0  0  0  0
 13 27  1  0  0  0  0
 27 28  4  0  0  0  0
 28 29  4  0  0  0  0
 29 30  4  0  0  0  0
 30 31  4  0  0  0  0
 31 32  4  0  0  0  0
 27 32  4  0  0  0  0
M  STY  1   1 DAT
M  SAL   1  1   4
M  SDT   1 MRV_IMPLICIT_H                                        
M  SDD   1     0.0000    0.0000    DR    ALL  0       0  
M  SED   1 IMPL_H1
M  END
>  <CdId>
358682

>  <Mol Weight>
449.525

>  <Formula>
C23H23N5O3S

>  <cmpd_chemblid>
CHEMBL601019

>  <std_type>
Ki

>  <std_value>
8.0

>  <std_unit>
nM

>  <target_id>
CHEMBL2016

>  <target_name>
Coagulation factor IX

>  <organism>
Homo sapiens

>  <target_type>
SINGLE PROTEIN

$$$$

  Mrv0541 08052111042D          

 43 48  0  0  1  0            999 V2000
    3.9849    3.9849    0.0000 C   0  0  0  0  0  0  0  0  0  0  0  0
    4.3974    3.2704    0.0000 C   0  0  2  0  0  0  0  0  0  0  0  0
    5.2224    3.2704    0.0000 C   0  0  0  0  0  0  0  0  0  0  0  0
    5.6349    2.5559    0.0000 C   0  0  0  0  0  0  0  0  0  0  0  0
    6.4599    2.5559    0.0000 C   0  0  0  0  0  0  0  0  0  0  0  0
    6.8724    1.8414    0.0000 C   0  0  2  0  0  0  0  0  0  0  0  0
    7.6974    1.8414    0.0000 N   0  0  0  0  0  0  0  0  0  0  0  0
    8.1099    2.5559    0.0000 C   0  0  0  0  0  0  0  0  0  0  0  0
    8.9349    2.5559    0.0000 C   0  0  0  0  0  0  0  0  0  0  0  0
    9.3474    1.8414    0.0000 C   0  0  0  0  0  0  0  0  0  0  0  0
   10.1724    1.8414    0.0000 C   0  0  0  0  0  0  0  0  0  0  0  0
   10.5849    2.5559    0.0000 C   0  0  0  0  0  0  0  0  0  0  0  0
   10.1724    3.2704    0.0000 N   0  0  0  0  0  0  0  0  0  0  0  0
    9.3519    3.3566    0.0000 C   0  0  0  0  0  0  0  0  0  0  0  0
    9.1803    4.1636    0.0000 N   0  0  0  0  0  0  0  0  0  0  0  0
    9.8948    4.5761    0.0000 N   0  0  0  0  0  0  0  0  0  0  0  0
   10.5079    4.0241    0.0000 N   0  0  0  0  0  0  0  0  0  0  0  0
   11.4099    2.5559    0.0000 C   0  0  0  0  0  0  0  0  0  0  0  0
   11.8224    1.8414    0.0000 C   0  0  0  0  0  0  0  0  0  0  0  0
   11.4099    1.1270    0.0000 C   0  0  0  0  0  0  0  0  0  0  0  0
   11.8224    0.4125    0.0000 Cl  0  0  0  0  0  0  0  0  0  0  0  0
   10.5849    1.1270    0.0000 C   0  0  0  0  0  0  0  0  0  0  0  0
   10.1724    0.4125    0.0000 F   0  0  0  0  0  0  0  0  0  0  0  0
    8.9349    1.1270    0.0000 C   0  0  0  0  0  0  0  0  0  0  0  0
    8.1099    1.1270    0.0000 C   0  0  0  0  0  0  0  0  0  0  0  0
    7.6974    0.4125    0.0000 O   0  0  0  0  0  0  0  0  0  0  0  0
    6.4599    1.1270    0.0000 C   0  0  0  0  0  0  0  0  0  0  0  0
    5.6349    1.1270    0.0000 C   0  0  0  0  0  0  0  0  0  0  0  0
    5.2224    0.4125    0.0000 C   0  0  0  0  0  0  0  0  0  0  0  0
    5.6349   -0.3020    0.0000 C   0  0  0  0  0  0  0  0  0  0  0  0
    6.4599   -0.3020    0.0000 C   0  0  0  0  0  0  0  0  0  0  0  0
    6.8724    0.4125    0.0000 N   0  0  0  0  0  0  0  0  0  0  0  0
    4.3974    0.4125    0.0000 C   0  0  0  0  0  0  0  0  0  0  0  0
    3.9849   -0.3020    0.0000 C   0  0  0  0  0  0  0  0  0  0  0  0
    3.1599   -0.3020    0.0000 C   0  0  0  0  0  0  0  0  0  0  0  0
    2.7474   -1.0164    0.0000 F   0  0  0  0  0  0  0  0  0  0  0  0
    2.7474    0.4125    0.0000 C   0  0  0  0  0  0  0  0  0  0  0  0
    1.9224    0.4125    0.0000 F   0  0  0  0  0  0  0  0  0  0  0  0
    3.1599    1.1270    0.0000 C   0  0  0  0  0  0  0  0  0  0  0  0
    3.9849    1.1270    0.0000 C   0  0  0  0  0  0  0  0  0  0  0  0
    4.3974    1.8414    0.0000 N   0  0  0  0  0  0  0  0  0  0  0  0
    3.9849    2.5559    0.0000 C   0  0  0  0  0  0  0  0  0  0  0  0
    3.1599    2.5559    0.0000 O   0  0  0  0  0  0  0  0  0  0  0  0
  2  1  1  6  0  0  0
  2  3  1  0  0  0  0
  3  4  1  0  0  0  0
  4  5  1  0  0  0  0
  5  6  1  0  0  0  0
  6  7  1  6  0  0  0
  7  8  1  0  0  0  0
  8  9  1  0  0  0  0
  9 10  1  0  0  0  0
 10 11  1  0  0  0  0
 11 12  4  0  0  0  0
 12 13  1  0  0  0  0
 13 14  4  0  0  0  0
 14 15  4  0  0  0  0
 15 16  4  0  0  0  0
 16 17  4  0  0  0  0
 13 17  4  0  0  0  0
 12 18  4  0  0  0  0
 18 19  4  0  0  0  0
 19 20  4  0  0  0  0
 20 21  1  0  0  0  0
 20 22  4  0  0  0  0
 11 22  4  0  0  0  0
 22 23  1  0  0  0  0
 10 24  2  0  0  0  0
 24 25  1  0  0  0  0
  7 25  1  0  0  0  0
 25 26  2  0  0  0  0
  6 27  1  0  0  0  0
 27 28  4  0  0  0  0
 28 29  4  0  0  0  0
 29 30  4  0  0  0  0
 30 31  4  0  0  0  0
 31 32  4  0  0  0  0
 27 32  4  0  0  0  0
 29 33  1  0  0  0  0
 33 34  4  0  0  0  0
 34 35  4  0  0  0  0
 35 36  1  0  0  0  0
 35 37  4  0  0  0  0
 37 38  1  0  0  0  0
 37 39  4  0  0  0  0
 39 40  4  0  0  0  0
 33 40  4  0  0  0  0
 40 41  1  0  0  0  0
 41 42  1  0  0  0  0
  2 42  1  0  0  0  0
 42 43  2  0  0  0  0
M  END
>  <CdId>
358683

>  <Mol Weight>
608.013

>  <Formula>
C30H25ClF3N7O2

>  <cmpd_chemblid>
CHEMBL4108033

>  <std_type>
Ki

>  <std_value>
0.07

>  <std_unit>
nM

>  <target_id>
CHEMBL2016

>  <target_name>
Coagulation factor IX

>  <organism>
Homo sapiens

>  <target_type>
SINGLE PROTEIN

$$$$

  Mrv0541 08052111042D          

 36 39  0  0  1  0            999 V2000
    0.0000    0.8250    0.0000 C   0  0  0  0  0  0  0  0  0  0  0  0
    0.0000    0.0000    0.0000 O   0  0  0  0  0  0  0  0  0  0  0  0
    0.7145   -0.4125    0.0000 C   0  0  0  0  0  0  0  0  0  0  0  0
    1.4289    0.0000    0.0000 C   0  0  0  0  0  0  0  0  0  0  0  0
    2.1434   -0.4125    0.0000 C   0  0  0  0  0  0  0  0  0  0  0  0
    2.8579    0.0000    0.0000 C   0  0  0  0  0  0  0  0  0  0  0  0
    2.8579    0.8250    0.0000 N   0  0  0  0  0  0  0  0  0  0  0  0
    3.5724   -0.4125    0.0000 N   0  0  0  0  0  0  0  0  0  0  0  0
    3.5724   -1.2375    0.0000 C   0  0  0  0  0  0  0  0  0  0  0  0
    2.8579   -1.6500    0.0000 C   0  0  0  0  0  0  0  0  0  0  0  0
    2.1434   -1.2375    0.0000 C   0  0  0  0  0  0  0  0  0  0  0  0
    1.4289   -1.6500    0.0000 C   0  0  0  0  0  0  0  0  0  0  0  0
    0.7145   -1.2375    0.0000 C   0  0  0  0  0  0  0  0  0  0  0  0
    0.0000   -1.6500    0.0000 C   0  0  0  0  0  0  0  0  0  0  0  0
    0.0000   -2.4750    0.0000 C   0  0  2  0  0  0  0  0  0  0  0  0
   -0.7145   -2.8875    0.0000 C   0  0  0  0  0  0  0  0  0  0  0  0
   -0.7145   -3.7125    0.0000 O   0  0  0  0  0  0  0  0  0  0  0  0
   -1.4289   -2.4750    0.0000 O   0  0  0  0  0  0  0  0  0  0  0  0
    0.7145   -2.8875    0.0000 N   0  0  0  0  0  0  0  0  0  0  0  0
    1.4681   -2.5519    0.0000 C   0  0  0  0  0  0  0  0  0  0  0  0
    2.0202   -3.1650    0.0000 C   0  0  0  0  0  0  0  0  0  0  0  0
    1.6077   -3.8795    0.0000 C   0  0  2  0  0  0  0  0  0  0  0  0
    1.9432   -4.6332    0.0000 N   0  0  0  0  0  0  0  0  0  0  0  0
    2.7637   -4.7194    0.0000 S   0  0  0  0  0  0  0  0  0  0  0  0
    2.6775   -5.5399    0.0000 O   0  0  0  0  0  0  0  0  0  0  0  0
    2.8500   -3.8989    0.0000 O   0  0  0  0  0  0  0  0  0  0  0  0
    3.5842   -4.8057    0.0000 C   0  0  0  0  0  0  0  0  0  0  0  0
    4.1362   -4.1926    0.0000 C   0  0  0  0  0  0  0  0  0  0  0  0
    4.8899   -4.5281    0.0000 N   0  0  0  0  0  0  0  0  0  0  0  0
    4.8037   -5.3486    0.0000 C   0  0  0  0  0  0  0  0  0  0  0  0
    5.4168   -5.9006    0.0000 N   0  0  0  0  0  0  0  0  0  0  0  0
    6.2014   -5.6457    0.0000 C   0  0  0  0  0  0  0  0  0  0  0  0
    5.2452   -6.7076    0.0000 C   0  0  0  0  0  0  0  0  0  0  0  0
    3.9967   -5.5201    0.0000 S   0  0  0  0  0  0  0  0  0  0  0  0
    0.8007   -3.7080    0.0000 C   0  0  0  0  0  0  0  0  0  0  0  0
    0.1876   -4.2600    0.0000 O   0  0  0  0  0  0  0  0  0  0  0  0
  1  2  1  0  0  0  0
  2  3  1  0  0  0  0
  3  4  4  0  0  0  0
  4  5  4  0  0  0  0
  5  6  4  0  0  0  0
  6  7  1  0  0  0  0
  6  8  4  0  0  0  0
  8  9  4  0  0  0  0
  9 10  4  0  0  0  0
 10 11  4  0  0  0  0
  5 11  4  0  0  0  0
 11 12  4  0  0  0  0
 12 13  4  0  0  0  0
  3 13  4  0  0  0  0
 13 14  1  0  0  0  0
 14 15  1  0  0  0  0
 15 16  1  0  0  0  0
 16 17  2  0  0  0  0
 16 18  1  0  0  0  0
 15 19  1  1  0  0  0
 19 20  1  0  0  0  0
 20 21  1  0  0  0  0
 21 22  1  0  0  0  0
 22 23  1  6  0  0  0
 23 24  1  0  0  0  0
 24 25  2  0  0  0  0
 24 26  2  0  0  0  0
 24 27  1  0  0  0  0
 27 28  4  0  0  0  0
 28 29  4  0  0  0  0
 29 30  4  0  0  0  0
 30 31  1  0  0  0  0
 31 32  1  0  0  0  0
 31 33  1  0  0  0  0
 30 34  4  0  0  0  0
 27 34  4  0  0  0  0
 22 35  1  0  0  0  0
 19 35  1  0  0  0  0
 35 36  2  0  0  0  0
M  END
>  <CdId>
358685

>  <Mol Weight>
534.608

>  <Formula>
C22H26N6O6S2

>  <cmpd_chemblid>
CHEMBL3965470

>  <std_type>
Ki

>  <std_value>
55.0

>  <std_unit>
nM

>  <target_id>
CHEMBL2016

>  <target_name>
Coagulation factor IX

>  <organism>
Homo sapiens

>  <target_type>
SINGLE PROTEIN

$$$$

  Mrv0541 08052111042D          

 42 46  0  0  1  0            999 V2000
    8.6329   -2.2539    0.0000 C   0  0  0  0  0  0  0  0  0  0  0  0
    8.2204   -1.5395    0.0000 O   0  0  0  0  0  0  0  0  0  0  0  0
    7.3954   -1.5395    0.0000 C   0  0  0  0  0  0  0  0  0  0  0  0
    6.9829   -2.2539    0.0000 O   0  0  0  0  0  0  0  0  0  0  0  0
    6.9829   -0.8250    0.0000 N   0  0  0  0  0  0  0  0  0  0  0  0
    6.1579   -0.8250    0.0000 C   0  0  0  0  0  0  0  0  0  0  0  0
    5.7454   -0.1105    0.0000 C   0  0  0  0  0  0  0  0  0  0  0  0
    4.9204   -0.1105    0.0000 C   0  0  0  0  0  0  0  0  0  0  0  0
    4.5079   -0.8250    0.0000 C   0  0  0  0  0  0  0  0  0  0  0  0
    4.9204   -1.5395    0.0000 C   0  0  0  0  0  0  0  0  0  0  0  0
    5.7454   -1.5395    0.0000 C   0  0  0  0  0  0  0  0  0  0  0  0
    4.5079   -2.2539    0.0000 N   0  0  0  0  0  0  0  0  0  0  0  0
    4.9204   -2.9684    0.0000 C   0  0  0  0  0  0  0  0  0  0  0  0
    5.7454   -2.9684    0.0000 O   0  0  0  0  0  0  0  0  0  0  0  0
    4.5079   -3.6829    0.0000 C   0  0  2  0  0  0  0  0  0  0  0  0
    4.9204   -4.3974    0.0000 C   0  0  0  0  0  0  0  0  0  0  0  0
    3.6829   -3.6829    0.0000 C   0  0  0  0  0  0  0  0  0  0  0  0
    3.2704   -2.9684    0.0000 C   0  0  0  0  0  0  0  0  0  0  0  0
    2.4454   -2.9684    0.0000 C   0  0  0  0  0  0  0  0  0  0  0  0
    2.0329   -2.2539    0.0000 C   0  0  2  0  0  0  0  0  0  0  0  0
    1.2079   -2.2539    0.0000 N   0  0  0  0  0  0  0  0  0  0  0  0
    0.7954   -2.9684    0.0000 C   0  0  0  0  0  0  0  0  0  0  0  0
   -0.0296   -2.9684    0.0000 C   0  0  0  0  0  0  0  0  0  0  0  0
   -0.4421   -2.2539    0.0000 C   0  0  0  0  0  0  0  0  0  0  0  0
   -1.2671   -2.2539    0.0000 C   0  0  0  0  0  0  0  0  0  0  0  0
   -1.6796   -2.9684    0.0000 C   0  0  0  0  0  0  0  0  0  0  0  0
   -1.2671   -3.6829    0.0000 Br  0  0  0  0  0  0  0  0  0  0  0  0
   -2.5046   -2.9684    0.0000 C   0  0  0  0  0  0  0  0  0  0  0  0
   -2.9171   -2.2539    0.0000 C   0  0  0  0  0  0  0  0  0  0  0  0
   -2.5046   -1.5395    0.0000 C   0  0  0  0  0  0  0  0  0  0  0  0
   -2.9171   -0.8250    0.0000 C   0  0  0  0  0  0  0  0  0  0  0  0
   -1.6796   -1.5395    0.0000 C   0  0  0  0  0  0  0  0  0  0  0  0
   -1.2671   -0.8250    0.0000 F   0  0  0  0  0  0  0  0  0  0  0  0
   -0.0296   -1.5395    0.0000 C   0  0  0  0  0  0  0  0  0  0  0  0
    0.7954   -1.5395    0.0000 C   0  0  0  0  0  0  0  0  0  0  0  0
    1.2079   -0.8250    0.0000 O   0  0  0  0  0  0  0  0  0  0  0  0
    2.4454   -1.5395    0.0000 C   0  0  0  0  0  0  0  0  0  0  0  0
    3.2704   -1.5395    0.0000 C   0  0  0  0  0  0  0  0  0  0  0  0
    3.6829   -0.8250    0.0000 C   0  0  0  0  0  0  0  0  0  0  0  0
    3.2704   -0.1105    0.0000 C   0  0  0  0  0  0  0  0  0  0  0  0
    2.4454   -0.1105    0.0000 C   0  0  0  0  0  0  0  0  0  0  0  0
    2.0329   -0.8250    0.0000 N   0  0  0  0  0  0  0  0  0  0  0  0
  1  2  1  0  0  0  0
  2  3  1  0  0  0  0
  3  4  2  0  0  0  0
  3  5  1  0  0  0  0
  5  6  1  0  0  0  0
  6  7  4  0  0  0  0
  7  8  4  0  0  0  0
  8  9  4  0  0  0  0
  9 10  4  0  0  0  0
 10 11  4  0  0  0  0
  6 11  4  0  0  0  0
 10 12  1  0  0  0  0
 12 13  1  0  0  0  0
 13 14  2  0  0  0  0
 13 15  1  0  0  0  0
 15 16  1  6  0  0  0
 15 17  1  0  0  0  0
 17 18  1  0  0  0  0
 18 19  1  0  0  0  0
 19 20  1  0  0  0  0
 20 21  1  6  0  0  0
 21 22  1  0  0  0  0
 22 23  1  0  0  0  0
 23 24  1  0  0  0  0
 24 25  1  0  0  0  0
 25 26  4  0  0  0  0
 26 27  1  0  0  0  0
 26 28  4  0  0  0  0
 28 29  4  0  0  0  0
 29 30  4  0  0  0  0
 30 31  1  0  0  0  0
 30 32  4  0  0  0  0
 25 32  4  0  0  0  0
 32 33  1  0  0  0  0
 24 34  2  0  0  0  0
 34 35  1  0  0  0  0
 21 35  1  0  0  0  0
 35 36  2  0  0  0  0
 20 37  1  0  0  0  0
 37 38  4  0  0  0  0
 38 39  4  0  0  0  0
  9 39  1  0  0  0  0
 39 40  4  0  0  0  0
 40 41  4  0  0  0  0
 41 42  4  0  0  0  0
 37 42  4  0  0  0  0
M  END
>  <CdId>
358686

>  <Mol Weight>
635.523

>  <Formula>
C32H32BrFN4O4

>  <cmpd_chemblid>
CHEMBL4111371

>  <std_type>
Ki

>  <std_value>
0.38

>  <std_unit>
nM

>  <target_id>
CHEMBL2016

>  <target_name>
Coagulation factor IX

>  <organism>
Homo sapiens

>  <target_type>
SINGLE PROTEIN

$$$$

  Mrv0541 08052111042D          

 44 48  0  0  1  0            999 V2000
    8.6329   -2.2539    0.0000 C   0  0  0  0  0  0  0  0  0  0  0  0
    8.2204   -1.5395    0.0000 O   0  0  0  0  0  0  0  0  0  0  0  0
    7.3954   -1.5395    0.0000 C   0  0  0  0  0  0  0  0  0  0  0  0
    6.9829   -2.2539    0.0000 O   0  0  0  0  0  0  0  0  0  0  0  0
    6.9829   -0.8250    0.0000 N   0  0  0  0  0  0  0  0  0  0  0  0
    6.1579   -0.8250    0.0000 C   0  0  0  0  0  0  0  0  0  0  0  0
    5.7454   -0.1105    0.0000 C   0  0  0  0  0  0  0  0  0  0  0  0
    4.9204   -0.1105    0.0000 C   0  0  0  0  0  0  0  0  0  0  0  0
    4.5079   -0.8250    0.0000 C   0  0  0  0  0  0  0  0  0  0  0  0
    4.9204   -1.5395    0.0000 C   0  0  0  0  0  0  0  0  0  0  0  0
    5.7454   -1.5395    0.0000 C   0  0  0  0  0  0  0  0  0  0  0  0
    4.5079   -2.2539    0.0000 N   0  0  0  0  0  0  0  0  0  0  0  0
    4.9204   -2.9684    0.0000 C   0  0  0  0  0  0  0  0  0  0  0  0
    5.7454   -2.9684    0.0000 O   0  0  0  0  0  0  0  0  0  0  0  0
    4.5079   -3.6829    0.0000 C   0  0  2  0  0  0  0  0  0  0  0  0
    4.9204   -4.3974    0.0000 C   0  0  0  0  0  0  0  0  0  0  0  0
    3.6829   -3.6829    0.0000 C   0  0  0  0  0  0  0  0  0  0  0  0
    3.2704   -2.9684    0.0000 C   0  0  0  0  0  0  0  0  0  0  0  0
    2.4454   -2.9684    0.0000 C   0  0  0  0  0  0  0  0  0  0  0  0
    2.0329   -2.2539    0.0000 C   0  0  2  0  0  0  0  0  0  0  0  0
    1.2079   -2.2539    0.0000 N   0  0  0  0  0  0  0  0  0  0  0  0
    0.7954   -2.9684    0.0000 C   0  0  0  0  0  0  0  0  0  0  0  0
   -0.0296   -2.9684    0.0000 C   0  0  0  0  0  0  0  0  0  0  0  0
   -0.4421   -2.2539    0.0000 C   0  0  0  0  0  0  0  0  0  0  0  0
   -1.2671   -2.2539    0.0000 C   0  0  0  0  0  0  0  0  0  0  0  0
   -1.6796   -2.9684    0.0000 C   0  0  0  0  0  0  0  0  0  0  0  0
   -2.5046   -2.9684    0.0000 C   0  0  0  0  0  0  0  0  0  0  0  0
   -2.9171   -3.6829    0.0000 Cl  0  0  0  0  0  0  0  0  0  0  0  0
   -2.9171   -2.2539    0.0000 C   0  0  0  0  0  0  0  0  0  0  0  0
   -2.5046   -1.5395    0.0000 C   0  0  0  0  0  0  0  0  0  0  0  0
   -1.6796   -1.5395    0.0000 C   0  0  0  0  0  0  0  0  0  0  0  0
   -1.2671   -0.8250    0.0000 C   0  0  0  0  0  0  0  0  0  0  0  0
   -0.8546   -0.1105    0.0000 F   0  0  0  0  0  0  0  0  0  0  0  0
   -0.5526   -1.2375    0.0000 F   0  0  0  0  0  0  0  0  0  0  0  0
   -1.9816   -0.4125    0.0000 F   0  0  0  0  0  0  0  0  0  0  0  0
   -0.0296   -1.5395    0.0000 C   0  0  0  0  0  0  0  0  0  0  0  0
    0.7954   -1.5395    0.0000 C   0  0  0  0  0  0  0  0  0  0  0  0
    1.2079   -0.8250    0.0000 O   0  0  0  0  0  0  0  0  0  0  0  0
    2.4454   -1.5395    0.0000 C   0  0  0  0  0  0  0  0  0  0  0  0
    3.2704   -1.5395    0.0000 C   0  0  0  0  0  0  0  0  0  0  0  0
    3.6829   -0.8250    0.0000 C   0  0  0  0  0  0  0  0  0  0  0  0
    3.2704   -0.1105    0.0000 C   0  0  0  0  0  0  0  0  0  0  0  0
    2.4454   -0.1105    0.0000 C   0  0  0  0  0  0  0  0  0  0  0  0
    2.0329   -0.8250    0.0000 N   0  0  0  0  0  0  0  0  0  0  0  0
  1  2  1  0  0  0  0
  2  3  1  0  0  0  0
  3  4  2  0  0  0  0
  3  5  1  0  0  0  0
  5  6  1  0  0  0  0
  6  7  4  0  0  0  0
  7  8  4  0  0  0  0
  8  9  4  0  0  0  0
  9 10  4  0  0  0  0
 10 11  4  0  0  0  0
  6 11  4  0  0  0  0
 10 12  1  0  0  0  0
 12 13  1  0  0  0  0
 13 14  2  0  0  0  0
 13 15  1  0  0  0  0
 15 16  1  6  0  0  0
 15 17  1  0  0  0  0
 17 18  1  0  0  0  0
 18 19  1  0  0  0  0
 19 20  1  0  0  0  0
 20 21  1  6  0  0  0
 21 22  1  0  0  0  0
 22 23  1  0  0  0  0
 23 24  1  0  0  0  0
 24 25  1  0  0  0  0
 25 26  4  0  0  0  0
 26 27  4  0  0  0  0
 27 28  1  0  0  0  0
 27 29  4  0  0  0  0
 29 30  4  0  0  0  0
 30 31  4  0  0  0  0
 25 31  4  0  0  0  0
 31 32  1  0  0  0  0
 32 33  1  0  0  0  0
 32 34  1  0  0  0  0
 32 35  1  0  0  0  0
 24 36  2  0  0  0  0
 36 37  1  0  0  0  0
 21 37  1  0  0  0  0
 37 38  2  0  0  0  0
 20 39  1  0  0  0  0
 39 40  4  0  0  0  0
 40 41  4  0  0  0  0
  9 41  1  0  0  0  0
 41 42  4  0  0  0  0
 42 43  4  0  0  0  0
 43 44  4  0  0  0  0
 39 44  4  0  0  0  0
M  END
>  <CdId>
358687

>  <Mol Weight>
627.053

>  <Formula>
C32H30ClF3N4O4

>  <cmpd_chemblid>
CHEMBL4106708

>  <std_type>
Ki

>  <std_value>
0.09

>  <std_unit>
nM

>  <target_id>
CHEMBL2016

>  <target_name>
Coagulation factor IX

>  <organism>
Homo sapiens

>  <target_type>
SINGLE PROTEIN

$$$$

  Mrv0541 08052111042D          

 32 36  0  0  1  0            999 V2000
    4.0668    2.3479    0.0000 C   0  0  0  0  0  0  0  0  0  0  0  0
    3.3523    1.9354    0.0000 C   0  0  0  0  0  0  0  0  0  0  0  0
    3.3523    1.1104    0.0000 C   0  0  0  0  0  0  0  0  0  0  0  0
    2.6378    0.6979    0.0000 C   0  0  0  0  0  0  0  0  0  0  0  0
    2.6378   -0.1271    0.0000 N   0  0  0  0  0  0  0  0  0  0  0  0
    3.3053   -0.6120    0.0000 C   0  0  0  0  0  0  0  0  0  0  0  0
    3.0503   -1.3966    0.0000 C   0  0  0  0  0  0  0  0  0  0  0  0
    2.2253   -1.3966    0.0000 C   0  0  1  0  0  0  0  0  0  0  0  0
    1.7404   -2.0640    0.0000 N   0  0  0  0  0  0  0  0  0  0  0  0
    2.0759   -2.8177    0.0000 C   0  0  0  0  0  0  0  0  0  0  0  0
    2.8964   -2.9040    0.0000 O   0  0  0  0  0  0  0  0  0  0  0  0
    1.5910   -3.4852    0.0000 C   0  0  0  0  0  0  0  0  0  0  0  0
    1.9266   -4.2388    0.0000 C   0  0  0  0  0  0  0  0  0  0  0  0
    1.4417   -4.9063    0.0000 C   0  0  0  0  0  0  0  0  0  0  0  0
    0.6212   -4.8200    0.0000 C   0  0  0  0  0  0  0  0  0  0  0  0
    0.1363   -5.4875    0.0000 N   0  0  0  0  0  0  0  0  0  0  0  0
    0.3912   -6.2721    0.0000 C   0  0  0  0  0  0  0  0  0  0  0  0
   -0.2762   -6.7570    0.0000 N   0  0  0  0  0  0  0  0  0  0  0  0
   -0.9437   -6.2721    0.0000 N   0  0  0  0  0  0  0  0  0  0  0  0
   -0.6887   -5.4875    0.0000 C   0  0  0  0  0  0  0  0  0  0  0  0
    0.2856   -4.0664    0.0000 C   0  0  0  0  0  0  0  0  0  0  0  0
    0.7705   -3.3989    0.0000 C   0  0  0  0  0  0  0  0  0  0  0  0
    0.4350   -2.6452    0.0000 Cl  0  0  0  0  0  0  0  0  0  0  0  0
    1.9704   -0.6120    0.0000 C   0  0  0  0  0  0  0  0  0  0  0  0
    1.9233    1.1104    0.0000 C   0  0  0  0  0  0  0  0  0  0  0  0
    1.1387    0.8555    0.0000 O   0  0  0  0  0  0  0  0  0  0  0  0
    0.6538    1.5229    0.0000 N   0  0  0  0  0  0  0  0  0  0  0  0
    1.1387    2.1904    0.0000 C   0  0  0  0  0  0  0  0  0  0  0  0
    0.8838    2.9750    0.0000 N   0  0  0  0  0  0  0  0  0  0  0  0
    1.9233    1.9354    0.0000 C   0  0  0  0  0  0  0  0  0  0  0  0
    2.6378    2.3479    0.0000 C   0  0  0  0  0  0  0  0  0  0  0  0
    2.6378    3.1729    0.0000 Cl  0  0  0  0  0  0  0  0  0  0  0  0
  1  2  1  0  0  0  0
  2  3  4  0  0  0  0
  3  4  4  0  0  0  0
  4  5  1  0  0  0  0
  5  6  1  0  0  0  0
  6  7  1  0  0  0  0
  7  8  1  0  0  0  0
  8  9  1  1  0  0  0
  9 10  1  0  0  0  0
 10 11  2  0  0  0  0
 10 12  1  0  0  0  0
 12 13  4  0  0  0  0
 13 14  4  0  0  0  0
 14 15  4  0  0  0  0
 15 16  1  0  0  0  0
 16 17  4  0  0  0  0
 17 18  4  0  0  0  0
 18 19  4  0  0  0  0
 19 20  4  0  0  0  0
 16 20  4  0  0  0  0
 15 21  4  0  0  0  0
 21 22  4  0  0  0  0
 12 22  4  0  0  0  0
 22 23  1  0  0  0  0
  8 24  1  0  0  0  0
  5 24  1  0  0  0  0
  4 25  4  0  0  0  0
 25 26  4  0  0  0  0
 26 27  4  0  0  0  0
 27 28  4  0  0  0  0
 28 29  1  0  0  0  0
 28 30  4  0  0  0  0
 25 30  4  0  0  0  0
 30 31  4  0  0  0  0
  2 31  4  0  0  0  0
 31 32  1  0  0  0  0
M  END
>  <CdId>
358688

>  <Mol Weight>
472.327

>  <Formula>
C21H19Cl2N7O2

>  <cmpd_chemblid>
CHEMBL4099310

>  <std_type>
Ki

>  <std_value>
31.0

>  <std_unit>
nM

>  <target_id>
CHEMBL2016

>  <target_name>
Coagulation factor IX

>  <organism>
Homo sapiens

>  <target_type>
SINGLE PROTEIN

$$$$

  Mrv0541 08052111042D          

 37 40  0  0  1  0            999 V2000
    0.7145    1.2375    0.0000 C   0  0  0  0  0  0  0  0  0  0  0  0
    0.0000    0.8250    0.0000 C   0  0  0  0  0  0  0  0  0  0  0  0
    0.0000    0.0000    0.0000 O   0  0  0  0  0  0  0  0  0  0  0  0
    0.7145   -0.4125    0.0000 C   0  0  0  0  0  0  0  0  0  0  0  0
    1.4289    0.0000    0.0000 C   0  0  0  0  0  0  0  0  0  0  0  0
    2.1434   -0.4125    0.0000 C   0  0  0  0  0  0  0  0  0  0  0  0
    2.8579    0.0000    0.0000 C   0  0  0  0  0  0  0  0  0  0  0  0
    2.8579    0.8250    0.0000 N   0  0  0  0  0  0  0  0  0  0  0  0
    3.5724   -0.4125    0.0000 N   0  0  0  0  0  0  0  0  0  0  0  0
    3.5724   -1.2375    0.0000 C   0  0  0  0  0  0  0  0  0  0  0  0
    2.8579   -1.6500    0.0000 C   0  0  0  0  0  0  0  0  0  0  0  0
    2.1434   -1.2375    0.0000 C   0  0  0  0  0  0  0  0  0  0  0  0
    1.4289   -1.6500    0.0000 C   0  0  0  0  0  0  0  0  0  0  0  0
    0.7145   -1.2375    0.0000 C   0  0  0  0  0  0  0  0  0  0  0  0
    0.0000   -1.6500    0.0000 C   0  0  0  0  0  0  0  0  0  0  0  0
    0.0000   -2.4750    0.0000 C   0  0  2  0  0  0  0  0  0  0  0  0
   -0.7145   -2.8875    0.0000 C   0  0  0  0  0  0  0  0  0  0  0  0
   -0.7145   -3.7125    0.0000 O   0  0  0  0  0  0  0  0  0  0  0  0
   -1.4289   -2.4750    0.0000 O   0  0  0  0  0  0  0  0  0  0  0  0
    0.7145   -2.8875    0.0000 N   0  0  0  0  0  0  0  0  0  0  0  0
    1.4681   -2.5519    0.0000 C   0  0  0  0  0  0  0  0  0  0  0  0
    2.0202   -3.1650    0.0000 C   0  0  0  0  0  0  0  0  0  0  0  0
    1.6077   -3.8795    0.0000 C   0  0  2  0  0  0  0  0  0  0  0  0
    1.9432   -4.6332    0.0000 N   0  0  0  0  0  0  0  0  0  0  0  0
    2.7637   -4.7194    0.0000 S   0  0  0  0  0  0  0  0  0  0  0  0
    2.6775   -5.5399    0.0000 O   0  0  0  0  0  0  0  0  0  0  0  0
    2.8500   -3.8989    0.0000 O   0  0  0  0  0  0  0  0  0  0  0  0
    3.5842   -4.8057    0.0000 C   0  0  0  0  0  0  0  0  0  0  0  0
    4.1362   -4.1926    0.0000 C   0  0  0  0  0  0  0  0  0  0  0  0
    4.8899   -4.5281    0.0000 N   0  0  0  0  0  0  0  0  0  0  0  0
    4.8037   -5.3486    0.0000 C   0  0  0  0  0  0  0  0  0  0  0  0
    5.4168   -5.9006    0.0000 N   0  0  0  0  0  0  0  0  0  0  0  0
    6.2014   -5.6457    0.0000 C   0  0  0  0  0  0  0  0  0  0  0  0
    5.2452   -6.7076    0.0000 C   0  0  0  0  0  0  0  0  0  0  0  0
    3.9967   -5.5201    0.0000 S   0  0  0  0  0  0  0  0  0  0  0  0
    0.8007   -3.7080    0.0000 C   0  0  0  0  0  0  0  0  0  0  0  0
    0.1876   -4.2600    0.0000 O   0  0  0  0  0  0  0  0  0  0  0  0
  1  2  1  0  0  0  0
  2  3  1  0  0  0  0
  3  4  1  0  0  0  0
  4  5  4  0  0  0  0
  5  6  4  0  0  0  0
  6  7  4  0  0  0  0
  7  8  1  0  0  0  0
  7  9  4  0  0  0  0
  9 10  4  0  0  0  0
 10 11  4  0  0  0  0
 11 12  4  0  0  0  0
  6 12  4  0  0  0  0
 12 13  4  0  0  0  0
 13 14  4  0  0  0  0
  4 14  4  0  0  0  0
 14 15  1  0  0  0  0
 15 16  1  0  0  0  0
 16 17  1  0  0  0  0
 17 18  2  0  0  0  0
 17 19  1  0  0  0  0
 16 20  1  1  0  0  0
 20 21  1  0  0  0  0
 21 22  1  0  0  0  0
 22 23  1  0  0  0  0
 23 24  1  6  0  0  0
 24 25  1  0  0  0  0
 25 26  2  0  0  0  0
 25 27  2  0  0  0  0
 25 28  1  0  0  0  0
 28 29  4  0  0  0  0
 29 30  4  0  0  0  0
 30 31  4  0  0  0  0
 31 32  1  0  0  0  0
 32 33  1  0  0  0  0
 32 34  1  0  0  0  0
 31 35  4  0  0  0  0
 28 35  4  0  0  0  0
 23 36  1  0  0  0  0
 20 36  1  0  0  0  0
 36 37  2  0  0  0  0
M  END
>  <CdId>
358690

>  <Mol Weight>
548.635

>  <Formula>
C23H28N6O6S2

>  <cmpd_chemblid>
CHEMBL3919758

>  <std_type>
Ki

>  <std_value>
80.0

>  <std_unit>
nM

>  <target_id>
CHEMBL2016

>  <target_name>
Coagulation factor IX

>  <organism>
Homo sapiens

>  <target_type>
SINGLE PROTEIN

$$$$

  Mrv0541 08052111042D          

 37 41  0  0  1  0            999 V2000
   -7.0582   -3.0243    0.0000 C   0  0  0  0  0  0  0  0  0  0  0  0
   -6.3907   -2.5394    0.0000 C   0  0  0  0  0  0  0  0  0  0  0  0
   -6.3907   -1.7144    0.0000 N   0  0  0  0  0  0  0  0  0  0  0  0
   -5.6061   -1.4594    0.0000 C   0  0  0  0  0  0  0  0  0  0  0  0
   -5.1212   -2.1269    0.0000 N   0  0  0  0  0  0  0  0  0  0  0  0
   -4.2962   -2.1269    0.0000 C   0  0  0  0  0  0  0  0  0  0  0  0
   -3.8837   -1.4124    0.0000 C   0  0  0  0  0  0  0  0  0  0  0  0
   -3.0587   -1.4124    0.0000 C   0  0  0  0  0  0  0  0  0  0  0  0
   -2.6462   -0.6979    0.0000 Cl  0  0  0  0  0  0  0  0  0  0  0  0
   -2.6462   -2.1269    0.0000 C   0  0  0  0  0  0  0  0  0  0  0  0
   -1.8212   -2.1269    0.0000 C   0  0  0  0  0  0  0  0  0  0  0  0
   -1.4087   -2.8414    0.0000 O   0  0  0  0  0  0  0  0  0  0  0  0
   -1.4087   -1.4124    0.0000 N   0  0  0  0  0  0  0  0  0  0  0  0
   -0.5837   -1.4124    0.0000 C   0  0  0  0  0  0  0  0  0  0  0  0
   -0.1712   -0.6979    0.0000 C   0  0  1  0  0  0  0  0  0  0  0  0
   -0.5837    0.0165    0.0000 C   0  0  0  0  0  0  0  0  0  0  0  0
   -1.4087    0.0165    0.0000 C   0  0  0  0  0  0  0  0  0  0  0  0
   -1.8212    0.7310    0.0000 C   0  0  0  0  0  0  0  0  0  0  0  0
   -1.4087    1.4455    0.0000 C   0  0  0  0  0  0  0  0  0  0  0  0
   -0.5837    1.4455    0.0000 C   0  0  0  0  0  0  0  0  0  0  0  0
   -0.1712    2.1599    0.0000 F   0  0  0  0  0  0  0  0  0  0  0  0
   -0.1712    0.7310    0.0000 C   0  0  0  0  0  0  0  0  0  0  0  0
    0.6538   -0.6979    0.0000 C   0  0  0  0  0  0  0  0  0  0  0  0
    1.1387   -0.0305    0.0000 N   0  0  0  0  0  0  0  0  0  0  0  0
    1.9233   -0.2854    0.0000 C   0  0  0  0  0  0  0  0  0  0  0  0
    2.6378    0.1271    0.0000 C   0  0  0  0  0  0  0  0  0  0  0  0
    3.3523   -0.2854    0.0000 C   0  0  0  0  0  0  0  0  0  0  0  0
    4.0668    0.1271    0.0000 C   0  0  0  0  0  0  0  0  0  0  0  0
    3.3523   -1.1104    0.0000 C   0  0  0  0  0  0  0  0  0  0  0  0
    4.0668   -1.5229    0.0000 Cl  0  0  0  0  0  0  0  0  0  0  0  0
    2.6378   -1.5229    0.0000 C   0  0  0  0  0  0  0  0  0  0  0  0
    1.9233   -1.1104    0.0000 C   0  0  0  0  0  0  0  0  0  0  0  0
    1.1387   -1.3654    0.0000 N   0  0  0  0  0  0  0  0  0  0  0  0
   -3.0587   -2.8414    0.0000 C   0  0  0  0  0  0  0  0  0  0  0  0
   -2.6462   -3.5558    0.0000 Cl  0  0  0  0  0  0  0  0  0  0  0  0
   -3.8837   -2.8414    0.0000 C   0  0  0  0  0  0  0  0  0  0  0  0
   -5.6061   -2.7943    0.0000 N   0  0  0  0  0  0  0  0  0  0  0  0
  1  2  1  0  0  0  0
  2  3  4  0  0  0  0
  3  4  4  0  0  0  0
  4  5  4  0  0  0  0
  5  6  1  0  0  0  0
  6  7  4  0  0  0  0
  7  8  4  0  0  0  0
  8  9  1  0  0  0  0
  8 10  4  0  0  0  0
 10 11  1  0  0  0  0
 11 12  2  0  0  0  0
 11 13  1  0  0  0  0
 13 14  1  0  0  0  0
 14 15  1  0  0  0  0
 15 16  1  0  0  0  0
 16 17  4  0  0  0  0
 17 18  4  0  0  0  0
 18 19  4  0  0  0  0
 19 20  4  0  0  0  0
 20 21  1  0  0  0  0
 20 22  4  0  0  0  0
 16 22  4  0  0  0  0
 15 23  1  1  0  0  0
 23 24  4  0  0  0  0
 24 25  4  0  0  0  0
 25 26  4  0  0  0  0
 26 27  4  0  0  0  0
 27 28  1  0  0  0  0
 27 29  4  0  0  0  0
 29 30  1  0  0  0  0
 29 31  4  0  0  0  0
 31 32  4  0  0  0  0
 25 32  4  0  0  0  0
 32 33  4  0  0  0  0
 23 33  4  0  0  0  0
 10 34  4  0  0  0  0
 34 35  1  0  0  0  0
 34 36  4  0  0  0  0
  6 36  4  0  0  0  0
  5 37  4  0  0  0  0
  2 37  4  0  0  0  0
M  STY  1   1 DAT
M  SAL   1  1  33
M  SDT   1 MRV_IMPLICIT_H                                        
M  SDD   1     0.0000    0.0000    DR    ALL  0       0  
M  SED   1 IMPL_H1
M  END
>  <CdId>
358691

>  <Mol Weight>
557.834

>  <Formula>
C26H20Cl3FN6O

>  <cmpd_chemblid>
CHEMBL3627893

>  <std_type>
Ki

>  <std_value>
13.6

>  <std_unit>
nM

>  <target_id>
CHEMBL2016

>  <target_name>
Coagulation factor IX

>  <organism>
Homo sapiens

>  <target_type>
SINGLE PROTEIN

$$$$

  Mrv0541 08052111042D          

 42 46  0  0  1  0            999 V2000
    8.6329   -2.2539    0.0000 C   0  0  0  0  0  0  0  0  0  0  0  0
    8.2204   -1.5395    0.0000 O   0  0  0  0  0  0  0  0  0  0  0  0
    7.3954   -1.5395    0.0000 C   0  0  0  0  0  0  0  0  0  0  0  0
    6.9829   -2.2539    0.0000 O   0  0  0  0  0  0  0  0  0  0  0  0
    6.9829   -0.8250    0.0000 N   0  0  0  0  0  0  0  0  0  0  0  0
    6.1579   -0.8250    0.0000 C   0  0  0  0  0  0  0  0  0  0  0  0
    5.7454   -0.1105    0.0000 C   0  0  0  0  0  0  0  0  0  0  0  0
    4.9204   -0.1105    0.0000 C   0  0  0  0  0  0  0  0  0  0  0  0
    4.5079   -0.8250    0.0000 C   0  0  0  0  0  0  0  0  0  0  0  0
    4.9204   -1.5395    0.0000 C   0  0  0  0  0  0  0  0  0  0  0  0
    5.7454   -1.5395    0.0000 C   0  0  0  0  0  0  0  0  0  0  0  0
    4.5079   -2.2539    0.0000 N   0  0  0  0  0  0  0  0  0  0  0  0
    4.9204   -2.9684    0.0000 C   0  0  0  0  0  0  0  0  0  0  0  0
    5.7454   -2.9684    0.0000 O   0  0  0  0  0  0  0  0  0  0  0  0
    4.5079   -3.6829    0.0000 C   0  0  2  0  0  0  0  0  0  0  0  0
    4.9204   -4.3974    0.0000 C   0  0  0  0  0  0  0  0  0  0  0  0
    3.6829   -3.6829    0.0000 C   0  0  0  0  0  0  0  0  0  0  0  0
    3.2704   -2.9684    0.0000 C   0  0  0  0  0  0  0  0  0  0  0  0
    2.4454   -2.9684    0.0000 C   0  0  0  0  0  0  0  0  0  0  0  0
    2.0329   -2.2539    0.0000 C   0  0  2  0  0  0  0  0  0  0  0  0
    1.2079   -2.2539    0.0000 N   0  0  0  0  0  0  0  0  0  0  0  0
    0.7954   -2.9684    0.0000 C   0  0  0  0  0  0  0  0  0  0  0  0
   -0.0296   -2.9684    0.0000 C   0  0  0  0  0  0  0  0  0  0  0  0
   -0.4421   -2.2539    0.0000 C   0  0  0  0  0  0  0  0  0  0  0  0
   -1.2671   -2.2539    0.0000 C   0  0  0  0  0  0  0  0  0  0  0  0
   -1.6796   -2.9684    0.0000 C   0  0  0  0  0  0  0  0  0  0  0  0
   -1.2671   -3.6829    0.0000 F   0  0  0  0  0  0  0  0  0  0  0  0
   -2.5046   -2.9684    0.0000 C   0  0  0  0  0  0  0  0  0  0  0  0
   -2.9171   -2.2539    0.0000 C   0  0  0  0  0  0  0  0  0  0  0  0
   -2.5046   -1.5395    0.0000 C   0  0  0  0  0  0  0  0  0  0  0  0
   -2.9171   -0.8250    0.0000 Cl  0  0  0  0  0  0  0  0  0  0  0  0
   -1.6796   -1.5395    0.0000 C   0  0  0  0  0  0  0  0  0  0  0  0
   -1.2671   -0.8250    0.0000 F   0  0  0  0  0  0  0  0  0  0  0  0
   -0.0296   -1.5395    0.0000 C   0  0  0  0  0  0  0  0  0  0  0  0
    0.7954   -1.5395    0.0000 C   0  0  0  0  0  0  0  0  0  0  0  0
    1.2079   -0.8250    0.0000 O   0  0  0  0  0  0  0  0  0  0  0  0
    2.4454   -1.5395    0.0000 C   0  0  0  0  0  0  0  0  0  0  0  0
    3.2704   -1.5395    0.0000 C   0  0  0  0  0  0  0  0  0  0  0  0
    3.6829   -0.8250    0.0000 C   0  0  0  0  0  0  0  0  0  0  0  0
    3.2704   -0.1105    0.0000 C   0  0  0  0  0  0  0  0  0  0  0  0
    2.4454   -0.1105    0.0000 C   0  0  0  0  0  0  0  0  0  0  0  0
    2.0329   -0.8250    0.0000 N   0  0  0  0  0  0  0  0  0  0  0  0
  1  2  1  0  0  0  0
  2  3  1  0  0  0  0
  3  4  2  0  0  0  0
  3  5  1  0  0  0  0
  5  6  1  0  0  0  0
  6  7  4  0  0  0  0
  7  8  4  0  0  0  0
  8  9  4  0  0  0  0
  9 10  4  0  0  0  0
 10 11  4  0  0  0  0
  6 11  4  0  0  0  0
 10 12  1  0  0  0  0
 12 13  1  0  0  0  0
 13 14  2  0  0  0  0
 13 15  1  0  0  0  0
 15 16  1  6  0  0  0
 15 17  1  0  0  0  0
 17 18  1  0  0  0  0
 18 19  1  0  0  0  0
 19 20  1  0  0  0  0
 20 21  1  6  0  0  0
 21 22  1  0  0  0  0
 22 23  1  0  0  0  0
 23 24  2  0  0  0  0
 24 25  1  0  0  0  0
 25 26  4  0  0  0  0
 26 27  1  0  0  0  0
 26 28  4  0  0  0  0
 28 29  4  0  0  0  0
 29 30  4  0  0  0  0
 30 31  1  0  0  0  0
 30 32  4  0  0  0  0
 25 32  4  0  0  0  0
 32 33  1  0  0  0  0
 24 34  1  0  0  0  0
 34 35  1  0  0  0  0
 21 35  1  0  0  0  0
 35 36  2  0  0  0  0
 20 37  1  0  0  0  0
 37 38  4  0  0  0  0
 38 39  4  0  0  0  0
  9 39  1  0  0  0  0
 39 40  4  0  0  0  0
 40 41  4  0  0  0  0
 41 42  4  0  0  0  0
 37 42  4  0  0  0  0
M  END
>  <CdId>
358694

>  <Mol Weight>
595.036

>  <Formula>
C31H29ClF2N4O4

>  <cmpd_chemblid>
CHEMBL4112089

>  <std_type>
Ki

>  <std_value>
1.66

>  <std_unit>
nM

>  <target_id>
CHEMBL2016

>  <target_name>
Coagulation factor IX

>  <organism>
Homo sapiens

>  <target_type>
SINGLE PROTEIN

$$$$

  Mrv0541 08052111042D          

 34 38  0  0  1  0            999 V2000
   -1.4066   -1.6301    0.0000 C   0  0  0  0  0  0  0  0  0  0  0  0
   -0.5996   -1.8016    0.0000 C   0  0  0  0  0  0  0  0  0  0  0  0
   -0.3446   -2.5862    0.0000 C   0  0  0  0  0  0  0  0  0  0  0  0
    0.4623   -2.7578    0.0000 C   0  0  0  0  0  0  0  0  0  0  0  0
    1.0144   -2.1447    0.0000 C   0  0  0  0  0  0  0  0  0  0  0  0
    1.8394   -2.1447    0.0000 C   0  0  0  0  0  0  0  0  0  0  0  0
    2.0943   -1.3601    0.0000 C   0  0  0  0  0  0  0  0  0  0  0  0
    1.4269   -0.8751    0.0000 N   0  0  0  0  0  0  0  0  0  0  0  0
    0.7594   -1.3601    0.0000 N   0  0  0  0  0  0  0  0  0  0  0  0
   -0.0476   -1.1885    0.0000 C   0  0  0  0  0  0  0  0  0  0  0  0
    2.9013   -1.1885    0.0000 C   0  0  0  0  0  0  0  0  0  0  0  0
    3.4533   -1.8016    0.0000 C   0  0  0  0  0  0  0  0  0  0  0  0
    3.1984   -2.5862    0.0000 C   0  0  2  0  0  0  0  0  0  0  0  0
    4.0153   -2.7011    0.0000 N   0  0  0  0  0  0  0  0  0  0  0  0
    4.5233   -2.0510    0.0000 C   0  0  0  0  0  0  0  0  0  0  0  0
    4.2142   -1.2860    0.0000 O   0  0  0  0  0  0  0  0  0  0  0  0
    5.3402   -2.1658    0.0000 C   0  0  0  0  0  0  0  0  0  0  0  0
    5.8481   -1.5157    0.0000 C   0  0  0  0  0  0  0  0  0  0  0  0
    5.5391   -0.7507    0.0000 Cl  0  0  0  0  0  0  0  0  0  0  0  0
    6.6651   -1.6305    0.0000 C   0  0  0  0  0  0  0  0  0  0  0  0
    6.9742   -2.3954    0.0000 C   0  0  0  0  0  0  0  0  0  0  0  0
    7.7911   -2.5102    0.0000 N   0  0  0  0  0  0  0  0  0  0  0  0
    8.3642   -1.9168    0.0000 C   0  0  0  0  0  0  0  0  0  0  0  0
    9.1057   -2.2784    0.0000 N   0  0  0  0  0  0  0  0  0  0  0  0
    8.9909   -3.0954    0.0000 C   0  0  0  0  0  0  0  0  0  0  0  0
    9.5844   -3.6685    0.0000 C   0  0  0  0  0  0  0  0  0  0  0  0
    8.1785   -3.2387    0.0000 N   0  0  0  0  0  0  0  0  0  0  0  0
    6.4662   -3.0455    0.0000 C   0  0  0  0  0  0  0  0  0  0  0  0
    5.6493   -2.9307    0.0000 C   0  0  0  0  0  0  0  0  0  0  0  0
    5.1414   -3.5808    0.0000 Cl  0  0  0  0  0  0  0  0  0  0  0  0
    3.2272   -3.4107    0.0000 C   0  0  0  0  0  0  0  0  0  0  0  0
    2.5275   -3.8479    0.0000 C   0  0  0  0  0  0  0  0  0  0  0  0
    3.9556   -3.7981    0.0000 O   0  0  0  0  0  0  0  0  0  0  0  0
    2.3914   -2.7578    0.0000 C   0  0  0  0  0  0  0  0  0  0  0  0
  1  2  1  0  0  0  0
  2  3  4  0  0  0  0
  3  4  4  0  0  0  0
  4  5  4  0  0  0  0
  5  6  4  0  0  0  0
  6  7  4  0  0  0  0
  7  8  4  0  0  0  0
  8  9  4  0  0  0  0
  5  9  4  0  0  0  0
  9 10  4  0  0  0  0
  2 10  4  0  0  0  0
  7 11  1  0  0  0  0
 11 12  1  0  0  0  0
 12 13  1  0  0  0  0
 13 14  1  1  0  0  0
 14 15  1  0  0  0  0
 15 16  2  0  0  0  0
 15 17  1  0  0  0  0
 17 18  4  0  0  0  0
 18 19  1  0  0  0  0
 18 20  4  0  0  0  0
 20 21  4  0  0  0  0
 21 22  1  0  0  0  0
 22 23  4  0  0  0  0
 23 24  4  0  0  0  0
 24 25  4  0  0  0  0
 25 26  1  0  0  0  0
 25 27  4  0  0  0  0
 22 27  4  0  0  0  0
 21 28  4  0  0  0  0
 28 29  4  0  0  0  0
 17 29  4  0  0  0  0
 29 30  1  0  0  0  0
 13 31  1  6  0  0  0
 31 32  1  0  0  0  0
 31 33  1  0  0  0  0
 13 34  1  0  0  0  0
  6 34  1  0  0  0  0
M  END
>  <CdId>
358696

>  <Mol Weight>
499.392

>  <Formula>
C24H24Cl2N6O2

>  <cmpd_chemblid>
CHEMBL3628837

>  <std_type>
Ki

>  <std_value>
12.5

>  <std_unit>
nM

>  <target_id>
CHEMBL2016

>  <target_name>
Coagulation factor IX

>  <organism>
Homo sapiens

>  <target_type>
SINGLE PROTEIN

$$$$

  Mrv0541 08052111042D          

 38 42  0  0  1  0            999 V2000
    0.8838   -2.1500    0.0000 N   0  0  0  0  0  0  0  0  0  0  0  0
    1.1387   -1.3654    0.0000 C   0  0  0  0  0  0  0  0  0  0  0  0
    0.6538   -0.6979    0.0000 N   0  0  0  0  0  0  0  0  0  0  0  0
    1.1387   -0.0305    0.0000 O   0  0  0  0  0  0  0  0  0  0  0  0
    1.9233   -0.2854    0.0000 C   0  0  0  0  0  0  0  0  0  0  0  0
    2.6378    0.1271    0.0000 C   0  0  0  0  0  0  0  0  0  0  0  0
    3.3523   -0.2854    0.0000 C   0  0  0  0  0  0  0  0  0  0  0  0
    4.0668    0.1271    0.0000 N   0  0  0  0  0  0  0  0  0  0  0  0
    4.0668    0.9521    0.0000 C   0  0  0  0  0  0  0  0  0  0  0  0
    3.3523    1.3646    0.0000 O   0  0  0  0  0  0  0  0  0  0  0  0
    4.7812    1.3646    0.0000 C   0  0  0  0  0  0  0  0  0  0  0  0
    5.4957    0.9521    0.0000 O   0  0  0  0  0  0  0  0  0  0  0  0
    4.7812    2.1896    0.0000 C   0  0  1  0  0  0  0  0  0  0  0  0
    4.0668    2.6021    0.0000 O   0  0  0  0  0  0  0  0  0  0  0  0
    4.0668    3.4271    0.0000 C   0  0  0  0  0  0  0  0  0  0  0  0
    4.7812    3.8396    0.0000 C   0  0  0  0  0  0  0  0  0  0  0  0
    5.4957    3.4271    0.0000 N   0  0  0  0  0  0  0  0  0  0  0  0
    6.2102    3.8396    0.0000 C   0  0  0  0  0  0  0  0  0  0  0  0
    6.2102    4.6646    0.0000 C   0  0  0  0  0  0  0  0  0  0  0  0
    6.9246    5.0771    0.0000 C   0  0  0  0  0  0  0  0  0  0  0  0
    7.6391    4.6646    0.0000 C   0  0  0  0  0  0  0  0  0  0  0  0
    8.3536    5.0771    0.0000 F   0  0  0  0  0  0  0  0  0  0  0  0
    7.6391    3.8396    0.0000 C   0  0  0  0  0  0  0  0  0  0  0  0
    8.3536    3.4271    0.0000 C   0  0  0  0  0  0  0  0  0  0  0  0
    9.0681    3.8396    0.0000 O   0  0  0  0  0  0  0  0  0  0  0  0
    8.3536    2.6021    0.0000 N   0  0  0  0  0  0  0  0  0  0  0  0
    9.0681    2.1896    0.0000 C   0  0  0  0  0  0  0  0  0  0  0  0
    9.0681    1.3646    0.0000 C   0  0  0  0  0  0  0  0  0  0  0  0
    8.3536    0.9521    0.0000 O   0  0  0  0  0  0  0  0  0  0  0  0
    7.6391    1.3646    0.0000 C   0  0  0  0  0  0  0  0  0  0  0  0
    7.6391    2.1896    0.0000 C   0  0  0  0  0  0  0  0  0  0  0  0
    6.9246    3.4271    0.0000 C   0  0  0  0  0  0  0  0  0  0  0  0
    5.4957    2.6021    0.0000 C   0  0  0  0  0  0  0  0  0  0  0  0
    6.2102    2.1896    0.0000 O   0  0  0  0  0  0  0  0  0  0  0  0
    3.3523   -1.1104    0.0000 C   0  0  0  0  0  0  0  0  0  0  0  0
    4.0668   -1.5229    0.0000 F   0  0  0  0  0  0  0  0  0  0  0  0
    2.6378   -1.5229    0.0000 C   0  0  0  0  0  0  0  0  0  0  0  0
    1.9233   -1.1104    0.0000 C   0  0  0  0  0  0  0  0  0  0  0  0
  1  2  1  0  0  0  0
  2  3  4  0  0  0  0
  3  4  4  0  0  0  0
  4  5  4  0  0  0  0
  5  6  4  0  0  0  0
  6  7  4  0  0  0  0
  7  8  1  0  0  0  0
  8  9  1  0  0  0  0
  9 10  2  0  0  0  0
  9 11  1  0  0  0  0
 11 12  1  0  0  0  0
 13 11  1  1  0  0  0
 13 14  1  0  0  0  0
 14 15  1  0  0  0  0
 15 16  1  0  0  0  0
 16 17  1  0  0  0  0
 17 18  1  0  0  0  0
 18 19  4  0  0  0  0
 19 20  4  0  0  0  0
 20 21  4  0  0  0  0
 21 22  1  0  0  0  0
 21 23  4  0  0  0  0
 23 24  1  0  0  0  0
 24 25  2  0  0  0  0
 24 26  1  0  0  0  0
 26 27  1  0  0  0  0
 27 28  1  0  0  0  0
 28 29  1  0  0  0  0
 29 30  1  0  0  0  0
 30 31  1  0  0  0  0
 26 31  1  0  0  0  0
 23 32  4  0  0  0  0
 18 32  4  0  0  0  0
 17 33  1  0  0  0  0
 13 33  1  0  0  0  0
 33 34  2  0  0  0  0
  7 35  4  0  0  0  0
 35 36  1  0  0  0  0
 35 37  4  0  0  0  0
 37 38  4  0  0  0  0
  2 38  4  0  0  0  0
  5 38  4  0  0  0  0
M  END
>  <CdId>
358698

>  <Mol Weight>
531.4655

>  <Formula>
C24H23F2N5O7

>  <cmpd_chemblid>
CHEMBL3658398

>  <std_type>
Ki

>  <std_value>
600.0

>  <std_unit>
nM

>  <target_id>
CHEMBL2016

>  <target_name>
Coagulation factor IX

>  <organism>
Homo sapiens

>  <target_type>
SINGLE PROTEIN

$$$$

  Mrv0541 08052111042D          

 42 47  0  0  1  0            999 V2000
   -0.7145   -0.4125    0.0000 C   0  0  0  0  0  0  0  0  0  0  0  0
    0.0000    0.0000    0.0000 O   0  0  0  0  0  0  0  0  0  0  0  0
    0.7145   -0.4125    0.0000 C   0  0  0  0  0  0  0  0  0  0  0  0
    1.4289    0.0000    0.0000 C   0  0  0  0  0  0  0  0  0  0  0  0
    2.1434   -0.4125    0.0000 C   0  0  0  0  0  0  0  0  0  0  0  0
    2.8579    0.0000    0.0000 C   0  0  0  0  0  0  0  0  0  0  0  0
    2.8579    0.8250    0.0000 N   0  0  0  0  0  0  0  0  0  0  0  0
    3.5724   -0.4125    0.0000 N   0  0  0  0  0  0  0  0  0  0  0  0
    3.5724   -1.2375    0.0000 C   0  0  0  0  0  0  0  0  0  0  0  0
    2.8579   -1.6500    0.0000 C   0  0  0  0  0  0  0  0  0  0  0  0
    2.1434   -1.2375    0.0000 C   0  0  0  0  0  0  0  0  0  0  0  0
    1.4289   -1.6500    0.0000 C   0  0  0  0  0  0  0  0  0  0  0  0
    0.7145   -1.2375    0.0000 C   0  0  0  0  0  0  0  0  0  0  0  0
    0.0000   -1.6500    0.0000 C   0  0  0  0  0  0  0  0  0  0  0  0
    0.0000   -2.4750    0.0000 C   0  0  2  0  0  0  0  0  0  0  0  0
   -0.7145   -2.8875    0.0000 C   0  0  0  0  0  0  0  0  0  0  0  0
   -0.7145   -3.7125    0.0000 O   0  0  0  0  0  0  0  0  0  0  0  0
   -1.4289   -2.4750    0.0000 O   0  0  0  0  0  0  0  0  0  0  0  0
   -2.1434   -2.8875    0.0000 C   0  0  0  0  0  0  0  0  0  0  0  0
   -2.8579   -2.4750    0.0000 C   0  0  0  0  0  0  0  0  0  0  0  0
   -3.6829   -2.4750    0.0000 C   0  0  0  0  0  0  0  0  0  0  0  0
   -3.2704   -1.7605    0.0000 C   0  0  0  0  0  0  0  0  0  0  0  0
    0.7145   -2.8875    0.0000 N   0  0  0  0  0  0  0  0  0  0  0  0
    1.4681   -2.5519    0.0000 C   0  0  0  0  0  0  0  0  0  0  0  0
    2.0202   -3.1650    0.0000 C   0  0  0  0  0  0  0  0  0  0  0  0
    1.6077   -3.8795    0.0000 C   0  0  2  0  0  0  0  0  0  0  0  0
    1.9432   -4.6332    0.0000 N   0  0  0  0  0  0  0  0  0  0  0  0
    2.7637   -4.7194    0.0000 S   0  0  0  0  0  0  0  0  0  0  0  0
    2.6775   -5.5399    0.0000 O   0  0  0  0  0  0  0  0  0  0  0  0
    2.8500   -3.8989    0.0000 O   0  0  0  0  0  0  0  0  0  0  0  0
    3.5842   -4.8057    0.0000 C   0  0  0  0  0  0  0  0  0  0  0  0
    4.1362   -4.1926    0.0000 C   0  0  0  0  0  0  0  0  0  0  0  0
    4.8899   -4.5281    0.0000 N   0  0  0  0  0  0  0  0  0  0  0  0
    4.8037   -5.3486    0.0000 C   0  0  0  0  0  0  0  0  0  0  0  0
    5.4168   -5.9006    0.0000 N   0  0  0  0  0  0  0  0  0  0  0  0
    6.2237   -5.7291    0.0000 C   0  0  0  0  0  0  0  0  0  0  0  0
    6.6362   -6.4436    0.0000 C   0  0  0  0  0  0  0  0  0  0  0  0
    6.0842   -7.0567    0.0000 C   0  0  0  0  0  0  0  0  0  0  0  0
    5.3305   -6.7211    0.0000 C   0  0  0  0  0  0  0  0  0  0  0  0
    3.9967   -5.5201    0.0000 S   0  0  0  0  0  0  0  0  0  0  0  0
    0.8007   -3.7080    0.0000 C   0  0  0  0  0  0  0  0  0  0  0  0
    0.1876   -4.2600    0.0000 O   0  0  0  0  0  0  0  0  0  0  0  0
  1  2  1  0  0  0  0
  2  3  1  0  0  0  0
  3  4  4  0  0  0  0
  4  5  4  0  0  0  0
  5  6  4  0  0  0  0
  6  7  1  0  0  0  0
  6  8  4  0  0  0  0
  8  9  4  0  0  0  0
  9 10  4  0  0  0  0
 10 11  4  0  0  0  0
  5 11  4  0  0  0  0
 11 12  4  0  0  0  0
 12 13  4  0  0  0  0
  3 13  4  0  0  0  0
 13 14  1  0  0  0  0
 14 15  1  0  0  0  0
 15 16  1  0  0  0  0
 16 17  2  0  0  0  0
 16 18  1  0  0  0  0
 18 19  1  0  0  0  0
 19 20  1  0  0  0  0
 20 21  1  0  0  0  0
 21 22  1  0  0  0  0
 20 22  1  0  0  0  0
 15 23  1  1  0  0  0
 23 24  1  0  0  0  0
 24 25  1  0  0  0  0
 25 26  1  0  0  0  0
 26 27  1  6  0  0  0
 27 28  1  0  0  0  0
 28 29  2  0  0  0  0
 28 30  2  0  0  0  0
 28 31  1  0  0  0  0
 31 32  4  0  0  0  0
 32 33  4  0  0  0  0
 33 34  4  0  0  0  0
 34 35  1  0  0  0  0
 35 36  1  0  0  0  0
 36 37  1  0  0  0  0
 37 38  1  0  0  0  0
 38 39  1  0  0  0  0
 35 39  1  0  0  0  0
 34 40  4  0  0  0  0
 31 40  4  0  0  0  0
 26 41  1  0  0  0  0
 23 41  1  0  0  0  0
 41 42  2  0  0  0  0
M  END
>  <CdId>
358699

>  <Mol Weight>
614.736

>  <Formula>
C28H34N6O6S2

>  <cmpd_chemblid>
CHEMBL3975332

>  <std_type>
Ki

>  <std_value>
390.0

>  <std_unit>
nM

>  <target_id>
CHEMBL2016

>  <target_name>
Coagulation factor IX

>  <organism>
Homo sapiens

>  <target_type>
SINGLE PROTEIN

$$$$

  Mrv0541 08052111042D          

 44 49  0  0  1  0            999 V2000
    3.9849    3.9849    0.0000 C   0  0  0  0  0  0  0  0  0  0  0  0
    4.3974    3.2704    0.0000 C   0  0  2  0  0  0  0  0  0  0  0  0
    5.2224    3.2704    0.0000 C   0  0  0  0  0  0  0  0  0  0  0  0
    5.6349    2.5559    0.0000 C   0  0  0  0  0  0  0  0  0  0  0  0
    6.4599    2.5559    0.0000 C   0  0  0  0  0  0  0  0  0  0  0  0
    6.8724    1.8414    0.0000 C   0  0  2  0  0  0  0  0  0  0  0  0
    7.6974    1.8414    0.0000 N   0  0  0  0  0  0  0  0  0  0  0  0
    8.1099    2.5559    0.0000 C   0  0  0  0  0  0  0  0  0  0  0  0
    8.9349    2.5559    0.0000 C   0  0  0  0  0  0  0  0  0  0  0  0
    9.3474    1.8414    0.0000 C   0  0  0  0  0  0  0  0  0  0  0  0
   10.1724    1.8414    0.0000 C   0  0  0  0  0  0  0  0  0  0  0  0
   10.5849    2.5559    0.0000 C   0  0  0  0  0  0  0  0  0  0  0  0
   10.1724    3.2704    0.0000 F   0  0  0  0  0  0  0  0  0  0  0  0
   11.4099    2.5559    0.0000 C   0  0  0  0  0  0  0  0  0  0  0  0
   11.8224    1.8414    0.0000 C   0  0  0  0  0  0  0  0  0  0  0  0
   11.4099    1.1270    0.0000 C   0  0  0  0  0  0  0  0  0  0  0  0
   11.8224    0.4125    0.0000 Cl  0  0  0  0  0  0  0  0  0  0  0  0
   10.5849    1.1270    0.0000 C   0  0  0  0  0  0  0  0  0  0  0  0
   10.1724    0.4125    0.0000 F   0  0  0  0  0  0  0  0  0  0  0  0
    8.9349    1.1270    0.0000 C   0  0  0  0  0  0  0  0  0  0  0  0
    8.1099    1.1270    0.0000 C   0  0  0  0  0  0  0  0  0  0  0  0
    7.6974    0.4125    0.0000 O   0  0  0  0  0  0  0  0  0  0  0  0
    6.4599    1.1270    0.0000 C   0  0  0  0  0  0  0  0  0  0  0  0
    5.6349    1.1270    0.0000 C   0  0  0  0  0  0  0  0  0  0  0  0
    5.2224    0.4125    0.0000 C   0  0  0  0  0  0  0  0  0  0  0  0
    5.6349   -0.3020    0.0000 C   0  0  0  0  0  0  0  0  0  0  0  0
    6.4599   -0.3020    0.0000 C   0  0  0  0  0  0  0  0  0  0  0  0
    6.8724    0.4125    0.0000 N   0  0  0  0  0  0  0  0  0  0  0  0
    4.3974    0.4125    0.0000 C   0  0  0  0  0  0  0  0  0  0  0  0
    3.9849   -0.3020    0.0000 C   0  0  0  0  0  0  0  0  0  0  0  0
    3.1599   -0.3020    0.0000 C   0  0  0  0  0  0  0  0  0  0  0  0
    2.7474    0.4125    0.0000 C   0  0  0  0  0  0  0  0  0  0  0  0
    1.9224    0.4125    0.0000 N   0  0  0  0  0  0  0  0  0  0  0  0
    1.5099    1.1270    0.0000 C   0  0  0  0  0  0  0  0  0  0  0  0
    0.6849    1.1270    0.0000 C   0  0  0  0  0  0  0  0  0  0  0  0
    0.2724    1.8414    0.0000 C   0  0  0  0  0  0  0  0  0  0  0  0
    0.6849    2.5559    0.0000 C   0  0  0  0  0  0  0  0  0  0  0  0
    1.5099    2.5559    0.0000 N   0  0  0  0  0  0  0  0  0  0  0  0
    1.9224    1.8414    0.0000 N   0  0  0  0  0  0  0  0  0  0  0  0
    3.1599    1.1270    0.0000 C   0  0  0  0  0  0  0  0  0  0  0  0
    3.9849    1.1270    0.0000 C   0  0  0  0  0  0  0  0  0  0  0  0
    4.3974    1.8414    0.0000 N   0  0  0  0  0  0  0  0  0  0  0  0
    3.9849    2.5559    0.0000 C   0  0  0  0  0  0  0  0  0  0  0  0
    3.1599    2.5559    0.0000 O   0  0  0  0  0  0  0  0  0  0  0  0
  2  1  1  6  0  0  0
  2  3  1  0  0  0  0
  3  4  1  0  0  0  0
  4  5  1  0  0  0  0
  5  6  1  0  0  0  0
  6  7  1  6  0  0  0
  7  8  1  0  0  0  0
  8  9  1  0  0  0  0
  9 10  1  0  0  0  0
 10 11  1  0  0  0  0
 11 12  4  0  0  0  0
 12 13  1  0  0  0  0
 12 14  4  0  0  0  0
 14 15  4  0  0  0  0
 15 16  4  0  0  0  0
 16 17  1  0  0  0  0
 16 18  4  0  0  0  0
 11 18  4  0  0  0  0
 18 19  1  0  0  0  0
 10 20  2  0  0  0  0
 20 21  1  0  0  0  0
  7 21  1  0  0  0  0
 21 22  2  0  0  0  0
  6 23  1  0  0  0  0
 23 24  4  0  0  0  0
 24 25  4  0  0  0  0
 25 26  4  0  0  0  0
 26 27  4  0  0  0  0
 27 28  4  0  0  0  0
 23 28  4  0  0  0  0
 25 29  1  0  0  0  0
 29 30  4  0  0  0  0
 30 31  4  0  0  0  0
 31 32  4  0  0  0  0
 32 33  1  0  0  0  0
 33 34  1  0  0  0  0
 34 35  4  0  0  0  0
 35 36  4  0  0  0  0
 36 37  4  0  0  0  0
 37 38  4  0  0  0  0
 38 39  4  0  0  0  0
 34 39  4  0  0  0  0
 32 40  4  0  0  0  0
 40 41  4  0  0  0  0
 29 41  4  0  0  0  0
 41 42  1  0  0  0  0
 42 43  1  0  0  0  0
  2 43  1  0  0  0  0
 43 44  2  0  0  0  0
M  END
>  <CdId>
358700

>  <Mol Weight>
615.072

>  <Formula>
C33H29ClF2N6O2

>  <cmpd_chemblid>
CHEMBL4113427

>  <std_type>
Ki

>  <std_value>
0.8

>  <std_unit>
nM

>  <target_id>
CHEMBL2016

>  <target_name>
Coagulation factor IX

>  <organism>
Homo sapiens

>  <target_type>
SINGLE PROTEIN

$$$$

  Mrv0541 08052111042D          

 42 46  0  0  1  0            999 V2000
    8.6329   -2.2539    0.0000 C   0  0  0  0  0  0  0  0  0  0  0  0
    8.2204   -1.5395    0.0000 O   0  0  0  0  0  0  0  0  0  0  0  0
    7.3954   -1.5395    0.0000 C   0  0  0  0  0  0  0  0  0  0  0  0
    6.9829   -2.2539    0.0000 O   0  0  0  0  0  0  0  0  0  0  0  0
    6.9829   -0.8250    0.0000 N   0  0  0  0  0  0  0  0  0  0  0  0
    6.1579   -0.8250    0.0000 C   0  0  0  0  0  0  0  0  0  0  0  0
    5.7454   -0.1105    0.0000 C   0  0  0  0  0  0  0  0  0  0  0  0
    4.9204   -0.1105    0.0000 C   0  0  0  0  0  0  0  0  0  0  0  0
    4.5079   -0.8250    0.0000 C   0  0  0  0  0  0  0  0  0  0  0  0
    4.9204   -1.5395    0.0000 C   0  0  0  0  0  0  0  0  0  0  0  0
    5.7454   -1.5395    0.0000 C   0  0  0  0  0  0  0  0  0  0  0  0
    4.5079   -2.2539    0.0000 N   0  0  0  0  0  0  0  0  0  0  0  0
    4.9204   -2.9684    0.0000 C   0  0  0  0  0  0  0  0  0  0  0  0
    5.7454   -2.9684    0.0000 O   0  0  0  0  0  0  0  0  0  0  0  0
    4.5079   -3.6829    0.0000 C   0  0  2  0  0  0  0  0  0  0  0  0
    4.9204   -4.3974    0.0000 C   0  0  0  0  0  0  0  0  0  0  0  0
    3.6829   -3.6829    0.0000 C   0  0  0  0  0  0  0  0  0  0  0  0
    3.2704   -2.9684    0.0000 C   0  0  0  0  0  0  0  0  0  0  0  0
    2.4454   -2.9684    0.0000 C   0  0  0  0  0  0  0  0  0  0  0  0
    2.0329   -2.2539    0.0000 C   0  0  2  0  0  0  0  0  0  0  0  0
    1.2079   -2.2539    0.0000 N   0  0  0  0  0  0  0  0  0  0  0  0
    0.7954   -2.9684    0.0000 C   0  0  0  0  0  0  0  0  0  0  0  0
   -0.0296   -2.9684    0.0000 C   0  0  0  0  0  0  0  0  0  0  0  0
   -0.4421   -2.2539    0.0000 C   0  0  0  0  0  0  0  0  0  0  0  0
   -1.2671   -2.2539    0.0000 C   0  0  0  0  0  0  0  0  0  0  0  0
   -1.6796   -2.9684    0.0000 C   0  0  0  0  0  0  0  0  0  0  0  0
   -1.2671   -3.6829    0.0000 F   0  0  0  0  0  0  0  0  0  0  0  0
   -2.5046   -2.9684    0.0000 C   0  0  0  0  0  0  0  0  0  0  0  0
   -2.9171   -2.2539    0.0000 C   0  0  0  0  0  0  0  0  0  0  0  0
   -2.5046   -1.5395    0.0000 C   0  0  0  0  0  0  0  0  0  0  0  0
   -2.9171   -0.8250    0.0000 Cl  0  0  0  0  0  0  0  0  0  0  0  0
   -1.6796   -1.5395    0.0000 C   0  0  0  0  0  0  0  0  0  0  0  0
   -1.2671   -0.8250    0.0000 F   0  0  0  0  0  0  0  0  0  0  0  0
   -0.0296   -1.5395    0.0000 C   0  0  0  0  0  0  0  0  0  0  0  0
    0.7954   -1.5395    0.0000 C   0  0  0  0  0  0  0  0  0  0  0  0
    1.2079   -0.8250    0.0000 O   0  0  0  0  0  0  0  0  0  0  0  0
    2.4454   -1.5395    0.0000 C   0  0  0  0  0  0  0  0  0  0  0  0
    3.2704   -1.5395    0.0000 C   0  0  0  0  0  0  0  0  0  0  0  0
    3.6829   -0.8250    0.0000 C   0  0  0  0  0  0  0  0  0  0  0  0
    3.2704   -0.1105    0.0000 C   0  0  0  0  0  0  0  0  0  0  0  0
    2.4454   -0.1105    0.0000 C   0  0  0  0  0  0  0  0  0  0  0  0
    2.0329   -0.8250    0.0000 N   0  0  0  0  0  0  0  0  0  0  0  0
  1  2  1  0  0  0  0
  2  3  1  0  0  0  0
  3  4  2  0  0  0  0
  3  5  1  0  0  0  0
  5  6  1  0  0  0  0
  6  7  4  0  0  0  0
  7  8  4  0  0  0  0
  8  9  4  0  0  0  0
  9 10  4  0  0  0  0
 10 11  4  0  0  0  0
  6 11  4  0  0  0  0
 10 12  1  0  0  0  0
 12 13  1  0  0  0  0
 13 14  2  0  0  0  0
 13 15  1  0  0  0  0
 15 16  1  6  0  0  0
 15 17  1  0  0  0  0
 17 18  2  0  0  0  0
 18 19  1  0  0  0  0
 19 20  1  0  0  0  0
 20 21  1  6  0  0  0
 21 22  1  0  0  0  0
 22 23  1  0  0  0  0
 23 24  1  0  0  0  0
 24 25  1  0  0  0  0
 25 26  4  0  0  0  0
 26 27  1  0  0  0  0
 26 28  4  0  0  0  0
 28 29  4  0  0  0  0
 29 30  4  0  0  0  0
 30 31  1  0  0  0  0
 30 32  4  0  0  0  0
 25 32  4  0  0  0  0
 32 33  1  0  0  0  0
 24 34  2  0  0  0  0
 34 35  1  0  0  0  0
 21 35  1  0  0  0  0
 35 36  2  0  0  0  0
 20 37  1  0  0  0  0
 37 38  4  0  0  0  0
 38 39  4  0  0  0  0
  9 39  1  0  0  0  0
 39 40  4  0  0  0  0
 40 41  4  0  0  0  0
 41 42  4  0  0  0  0
 37 42  4  0  0  0  0
M  END
>  <CdId>
358702

>  <Mol Weight>
593.02

>  <Formula>
C31H27ClF2N4O4

>  <cmpd_chemblid>
CHEMBL4112841

>  <std_type>
Ki

>  <std_value>
29.14

>  <std_unit>
nM

>  <target_id>
CHEMBL2016

>  <target_name>
Coagulation factor IX

>  <organism>
Homo sapiens

>  <target_type>
SINGLE PROTEIN

$$$$

  Mrv0541 08052111042D          

 31 35  0  0  0  0            999 V2000
   -0.3025   -0.4039    0.0000 C   0  0  0  0  0  0  0  0  0  0  0  0
   -0.0476   -1.1885    0.0000 C   0  0  0  0  0  0  0  0  0  0  0  0
   -0.5996   -1.8016    0.0000 C   0  0  0  0  0  0  0  0  0  0  0  0
   -0.3446   -2.5862    0.0000 C   0  0  0  0  0  0  0  0  0  0  0  0
    0.4623   -2.7578    0.0000 C   0  0  0  0  0  0  0  0  0  0  0  0
    0.7173   -3.5424    0.0000 O   0  0  0  0  0  0  0  0  0  0  0  0
    1.0144   -2.1447    0.0000 C   0  0  0  0  0  0  0  0  0  0  0  0
    1.8394   -2.1447    0.0000 C   0  0  0  0  0  0  0  0  0  0  0  0
    2.0943   -1.3601    0.0000 C   0  0  0  0  0  0  0  0  0  0  0  0
    1.4269   -0.8751    0.0000 N   0  0  0  0  0  0  0  0  0  0  0  0
    0.7594   -1.3601    0.0000 N   0  0  0  0  0  0  0  0  0  0  0  0
    2.9013   -1.1885    0.0000 C   0  0  0  0  0  0  0  0  0  0  0  0
    3.4533   -1.8016    0.0000 C   0  0  0  0  0  0  0  0  0  0  0  0
    3.1984   -2.5862    0.0000 C   0  0  0  0  0  0  0  0  0  0  0  0
    4.0153   -2.7011    0.0000 C   0  0  0  0  0  0  0  0  0  0  0  0
    3.2272   -3.4107    0.0000 N   0  0  0  0  0  0  0  0  0  0  0  0
    3.9556   -3.7981    0.0000 C   0  0  0  0  0  0  0  0  0  0  0  0
    4.6552   -3.3609    0.0000 O   0  0  0  0  0  0  0  0  0  0  0  0
    3.9844   -4.6226    0.0000 C   0  0  0  0  0  0  0  0  0  0  0  0
    4.7128   -5.0099    0.0000 C   0  0  0  0  0  0  0  0  0  0  0  0
    4.7416   -5.8344    0.0000 C   0  0  0  0  0  0  0  0  0  0  0  0
    4.0420   -6.2715    0.0000 C   0  0  0  0  0  0  0  0  0  0  0  0
    4.0708   -7.0960    0.0000 N   0  0  0  0  0  0  0  0  0  0  0  0
    4.7547   -7.5574    0.0000 C   0  0  0  0  0  0  0  0  0  0  0  0
    4.5273   -8.3504    0.0000 N   0  0  0  0  0  0  0  0  0  0  0  0
    3.7028   -8.3792    0.0000 N   0  0  0  0  0  0  0  0  0  0  0  0
    3.4206   -7.6040    0.0000 C   0  0  0  0  0  0  0  0  0  0  0  0
    3.3135   -5.8842    0.0000 C   0  0  0  0  0  0  0  0  0  0  0  0
    3.2847   -5.0597    0.0000 C   0  0  0  0  0  0  0  0  0  0  0  0
    2.5563   -4.6724    0.0000 Cl  0  0  0  0  0  0  0  0  0  0  0  0
    2.3914   -2.7578    0.0000 C   0  0  0  0  0  0  0  0  0  0  0  0
  1  2  1  0  0  0  0
  2  3  4  0  0  0  0
  3  4  4  0  0  0  0
  4  5  4  0  0  0  0
  5  6  1  0  0  0  0
  5  7  4  0  0  0  0
  7  8  4  0  0  0  0
  8  9  4  0  0  0  0
  9 10  4  0  0  0  0
 10 11  4  0  0  0  0
  2 11  4  0  0  0  0
  7 11  4  0  0  0  0
  9 12  1  0  0  0  0
 12 13  1  0  0  0  0
 13 14  1  0  0  0  0
 14 15  1  0  0  0  0
 14 16  1  0  0  0  0
 16 17  1  0  0  0  0
 17 18  2  0  0  0  0
 17 19  1  0  0  0  0
 19 20  4  0  0  0  0
 20 21  4  0  0  0  0
 21 22  4  0  0  0  0
 22 23  1  0  0  0  0
 23 24  4  0  0  0  0
 24 25  4  0  0  0  0
 25 26  4  0  0  0  0
 26 27  4  0  0  0  0
 23 27  4  0  0  0  0
 22 28  4  0  0  0  0
 28 29  4  0  0  0  0
 19 29  4  0  0  0  0
 29 30  1  0  0  0  0
 14 31  1  0  0  0  0
  8 31  1  0  0  0  0
M  END
>  <CdId>
358703

>  <Mol Weight>
436.894

>  <Formula>
C22H21ClN6O2

>  <cmpd_chemblid>
CHEMBL3423050

>  <std_type>
Ki

>  <std_value>
90.0

>  <std_unit>
nM

>  <target_id>
CHEMBL2016

>  <target_name>
Coagulation factor IX

>  <organism>
Homo sapiens

>  <target_type>
SINGLE PROTEIN

$$$$

  Mrv0541 08052111042D          

 43 47  0  0  1  0            999 V2000
    4.5375   -2.9684    0.0000 C   0  0  0  0  0  0  0  0  0  0  0  0
    4.1250   -2.2539    0.0000 O   0  0  0  0  0  0  0  0  0  0  0  0
    3.3000   -2.2539    0.0000 C   0  0  0  0  0  0  0  0  0  0  0  0
    2.8875   -2.9684    0.0000 O   0  0  0  0  0  0  0  0  0  0  0  0
    2.8875   -1.5395    0.0000 C   0  0  0  0  0  0  0  0  0  0  0  0
    3.3000   -0.8250    0.0000 C   0  0  0  0  0  0  0  0  0  0  0  0
    2.8875   -0.1105    0.0000 C   0  0  0  0  0  0  0  0  0  0  0  0
    2.0625   -0.1105    0.0000 C   0  0  0  0  0  0  0  0  0  0  0  0
    1.6500   -0.8250    0.0000 C   0  0  0  0  0  0  0  0  0  0  0  0
    2.0625   -1.5395    0.0000 C   0  0  0  0  0  0  0  0  0  0  0  0
    0.8250   -0.8250    0.0000 C   0  0  0  0  0  0  0  0  0  0  0  0
    0.4125   -1.5395    0.0000 C   0  0  0  0  0  0  0  0  0  0  0  0
   -0.4125   -1.5395    0.0000 C   0  0  0  0  0  0  0  0  0  0  0  0
   -0.8250   -0.8250    0.0000 C   0  0  0  0  0  0  0  0  0  0  0  0
   -0.4125   -0.1105    0.0000 C   0  0  0  0  0  0  0  0  0  0  0  0
    0.4125   -0.1105    0.0000 C   0  0  0  0  0  0  0  0  0  0  0  0
   -0.8250    0.6039    0.0000 C   0  0  1  0  0  0  0  0  0  0  0  0
   -1.6500    0.6039    0.0000 N   0  0  0  0  0  0  0  0  0  0  0  0
   -2.0625   -0.1105    0.0000 C   0  0  0  0  0  0  0  0  0  0  0  0
   -2.8875   -0.1105    0.0000 C   0  0  0  0  0  0  0  0  0  0  0  0
   -3.3000    0.6039    0.0000 C   0  0  0  0  0  0  0  0  0  0  0  0
   -4.1250    0.6039    0.0000 C   0  0  0  0  0  0  0  0  0  0  0  0
   -4.5375   -0.1105    0.0000 C   0  0  0  0  0  0  0  0  0  0  0  0
   -4.1250   -0.8250    0.0000 C   0  0  0  0  0  0  0  0  0  0  0  0
   -3.7125   -1.5395    0.0000 N   0  0  0  0  0  0  0  0  0  0  0  0
   -5.3625   -0.1105    0.0000 C   0  0  0  0  0  0  0  0  0  0  0  0
   -5.7750    0.6039    0.0000 C   0  0  0  0  0  0  0  0  0  0  0  0
   -5.3625    1.3184    0.0000 C   0  0  0  0  0  0  0  0  0  0  0  0
   -5.7750    2.0329    0.0000 C   0  0  0  0  0  0  0  0  0  0  0  0
   -6.1875    2.7474    0.0000 N   0  0  0  0  0  0  0  0  0  0  0  0
   -4.5375    1.3184    0.0000 C   0  0  0  0  0  0  0  0  0  0  0  0
   -4.1250    2.0329    0.0000 F   0  0  0  0  0  0  0  0  0  0  0  0
   -2.8875    1.3184    0.0000 C   0  0  0  0  0  0  0  0  0  0  0  0
   -2.0625    1.3184    0.0000 C   0  0  0  0  0  0  0  0  0  0  0  0
   -1.6500    2.0329    0.0000 O   0  0  0  0  0  0  0  0  0  0  0  0
   -0.4125    1.3184    0.0000 C   0  0  0  0  0  0  0  0  0  0  0  0
    0.4125    1.3184    0.0000 C   0  0  0  0  0  0  0  0  0  0  0  0
    0.8250    2.0329    0.0000 C   0  0  0  0  0  0  0  0  0  0  0  0
    1.6500    2.0329    0.0000 C   0  0  1  0  0  0  0  0  0  0  0  0
    2.0625    2.7474    0.0000 C   0  0  0  0  0  0  0  0  0  0  0  0
    2.0625    1.3184    0.0000 C   0  0  0  0  0  0  0  0  0  0  0  0
    2.8875    1.3184    0.0000 O   0  0  0  0  0  0  0  0  0  0  0  0
    1.6500    0.6039    0.0000 N   0  0  0  0  0  0  0  0  0  0  0  0
  1  2  1  0  0  0  0
  2  3  1  0  0  0  0
  3  4  2  0  0  0  0
  3  5  1  0  0  0  0
  5  6  4  0  0  0  0
  6  7  4  0  0  0  0
  7  8  4  0  0  0  0
  8  9  4  0  0  0  0
  9 10  4  0  0  0  0
  5 10  4  0  0  0  0
  9 11  1  0  0  0  0
 11 12  4  0  0  0  0
 12 13  4  0  0  0  0
 13 14  4  0  0  0  0
 14 15  4  0  0  0  0
 15 16  4  0  0  0  0
 11 16  4  0  0  0  0
 15 17  1  0  0  0  0
 17 18  1  1  0  0  0
 18 19  1  0  0  0  0
 19 20  1  0  0  0  0
 20 21  1  0  0  0  0
 21 22  1  0  0  0  0
 22 23  4  0  0  0  0
 23 24  1  0  0  0  0
 24 25  3  0  0  0  0
 23 26  4  0  0  0  0
 26 27  4  0  0  0  0
 27 28  4  0  0  0  0
 28 29  1  0  0  0  0
 29 30  3  0  0  0  0
 28 31  4  0  0  0  0
 22 31  4  0  0  0  0
 31 32  1  0  0  0  0
 21 33  2  0  0  0  0
 33 34  1  0  0  0  0
 18 34  1  0  0  0  0
 34 35  2  0  0  0  0
 17 36  1  0  0  0  0
 36 37  1  0  0  0  0
 37 38  1  0  0  0  0
 38 39  1  0  0  0  0
 39 40  1  1  0  0  0
 39 41  1  0  0  0  0
 41 42  2  0  0  0  0
 41 43  1  0  0  0  0
  8 43  1  0  0  0  0
M  END
>  <CdId>
358706

>  <Mol Weight>
576.6169

>  <Formula>
C34H29FN4O4

>  <cmpd_chemblid>
CHEMBL4109331

>  <std_type>
Ki

>  <std_value>
416.7

>  <std_unit>
nM

>  <target_id>
CHEMBL2016

>  <target_name>
Coagulation factor IX

>  <organism>
Homo sapiens

>  <target_type>
SINGLE PROTEIN

$$$$

  Mrv0541 08052111042D          

 42 47  0  0  0  0            999 V2000
   10.2293    2.1298    0.0000 N   0  0  0  0  0  0  0  0  0  0  0  0
    9.5148    1.7173    0.0000 C   0  0  0  0  0  0  0  0  0  0  0  0
    9.5148    0.8923    0.0000 N   0  0  0  0  0  0  0  0  0  0  0  0
    8.8003    2.1298    0.0000 C   0  0  0  0  0  0  0  0  0  0  0  0
    8.8003    2.9548    0.0000 C   0  0  0  0  0  0  0  0  0  0  0  0
    8.0859    3.3673    0.0000 C   0  0  0  0  0  0  0  0  0  0  0  0
    7.3714    2.9548    0.0000 C   0  0  0  0  0  0  0  0  0  0  0  0
    6.5868    3.2097    0.0000 N   0  0  0  0  0  0  0  0  0  0  0  0
    6.1019    2.5423    0.0000 C   0  0  0  0  0  0  0  0  0  0  0  0
    6.5868    1.8748    0.0000 C   0  0  0  0  0  0  0  0  0  0  0  0
    6.3318    1.0902    0.0000 C   0  0  0  0  0  0  0  0  0  0  0  0
    6.8839    0.4771    0.0000 C   0  0  0  0  0  0  0  0  0  0  0  0
    6.6289   -0.3075    0.0000 C   0  0  0  0  0  0  0  0  0  0  0  0
    5.8220   -0.4790    0.0000 C   0  0  0  0  0  0  0  0  0  0  0  0
    5.5670   -1.2636    0.0000 C   0  0  0  0  0  0  0  0  0  0  0  0
    6.1190   -1.8767    0.0000 C   0  0  0  0  0  0  0  0  0  0  0  0
    6.9260   -1.7052    0.0000 C   0  0  0  0  0  0  0  0  0  0  0  0
    7.4781   -2.3183    0.0000 C   0  0  0  0  0  0  0  0  0  0  0  0
    8.2850   -2.1468    0.0000 O   0  0  0  0  0  0  0  0  0  0  0  0
    7.2231   -3.1029    0.0000 O   0  0  0  0  0  0  0  0  0  0  0  0
    7.1810   -0.9206    0.0000 C   0  0  0  0  0  0  0  0  0  0  0  0
    5.5249    0.9187    0.0000 C   0  0  0  0  0  0  0  0  0  0  0  0
    4.9728    1.5318    0.0000 O   0  0  0  0  0  0  0  0  0  0  0  0
    5.2699    0.1341    0.0000 N   0  0  0  0  0  0  0  0  0  0  0  0
    4.4630   -0.0375    0.0000 C   0  0  0  0  0  0  0  0  0  0  0  0
    4.2080   -0.8221    0.0000 C   0  0  0  0  0  0  0  0  0  0  0  0
    3.4010   -0.9936    0.0000 C   0  0  0  0  0  0  0  0  0  0  0  0
    2.8490   -0.3805    0.0000 C   0  0  0  0  0  0  0  0  0  0  0  0
    2.0420   -0.5520    0.0000 N   0  0  0  0  0  0  0  0  0  0  0  0
    1.7065   -1.3057    0.0000 C   0  0  0  0  0  0  0  0  0  0  0  0
    0.8860   -1.2195    0.0000 N   0  0  0  0  0  0  0  0  0  0  0  0
    0.7145   -0.4125    0.0000 C   0  0  0  0  0  0  0  0  0  0  0  0
   -0.0000    0.0000    0.0000 C   0  0  0  0  0  0  0  0  0  0  0  0
   -0.0000    0.8250    0.0000 C   0  0  0  0  0  0  0  0  0  0  0  0
    0.7145    1.2375    0.0000 C   0  0  0  0  0  0  0  0  0  0  0  0
    1.4289    0.8250    0.0000 C   0  0  0  0  0  0  0  0  0  0  0  0
    1.4289    0.0000    0.0000 C   0  0  0  0  0  0  0  0  0  0  0  0
    3.1039    0.4041    0.0000 C   0  0  0  0  0  0  0  0  0  0  0  0
    3.9109    0.5756    0.0000 C   0  0  0  0  0  0  0  0  0  0  0  0
    4.1659    1.3603    0.0000 F   0  0  0  0  0  0  0  0  0  0  0  0
    7.3714    2.1298    0.0000 C   0  0  0  0  0  0  0  0  0  0  0  0
    8.0859    1.7173    0.0000 C   0  0  0  0  0  0  0  0  0  0  0  0
  1  2  2  0  0  0  0
  2  3  1  0  0  0  0
  2  4  1  0  0  0  0
  4  5  4  0  0  0  0
  5  6  4  0  0  0  0
  6  7  4  0  0  0  0
  7  8  4  0  0  0  0
  8  9  4  0  0  0  0
  9 10  4  0  0  0  0
 10 11  1  0  0  0  0
 11 12  1  0  0  0  0
 12 13  1  0  0  0  0
 13 14  4  0  0  0  0
 14 15  4  0  0  0  0
 15 16  4  0  0  0  0
 16 17  4  0  0  0  0
 17 18  1  0  0  0  0
 18 19  2  0  0  0  0
 18 20  1  0  0  0  0
 17 21  4  0  0  0  0
 13 21  4  0  0  0  0
 11 22  1  0  0  0  0
 22 23  2  0  0  0  0
 22 24  1  0  0  0  0
 24 25  1  0  0  0  0
 25 26  4  0  0  0  0
 26 27  4  0  0  0  0
 27 28  4  0  0  0  0
 28 29  1  0  0  0  0
 29 30  4  0  0  0  0
 30 31  4  0  0  0  0
 31 32  4  0  0  0  0
 32 33  4  0  0  0  0
 33 34  4  0  0  0  0
 34 35  4  0  0  0  0
 35 36  4  0  0  0  0
 36 37  4  0  0  0  0
 32 37  4  0  0  0  0
 29 37  4  0  0  0  0
 28 38  4  0  0  0  0
 38 39  4  0  0  0  0
 25 39  4  0  0  0  0
 39 40  1  0  0  0  0
 10 41  4  0  0  0  0
  7 41  4  0  0  0  0
 41 42  4  0  0  0  0
  4 42  4  0  0  0  0
M  STY  1   1 DAT
M  SAL   1  1   8
M  SDT   1 MRV_IMPLICIT_H                                        
M  SDD   1     0.0000    0.0000    DR    ALL  0       0  
M  SED   1 IMPL_H1
M  END
>  <CdId>
358707

>  <Mol Weight>
560.5777

>  <Formula>
C32H25FN6O3

>  <cmpd_chemblid>
CHEMBL364434

>  <std_type>
Ki

>  <std_value>
59.0

>  <std_unit>
nM

>  <target_id>
CHEMBL2016

>  <target_name>
Coagulation factor IX

>  <organism>
Homo sapiens

>  <target_type>
SINGLE PROTEIN

$$$$

  Mrv0541 08052111042D          

 49 54  0  0  1  0            999 V2000
   10.8209   -5.0803    0.0000 C   0  0  0  0  0  0  0  0  0  0  0  0
   10.0672   -4.7448    0.0000 C   0  0  0  0  0  0  0  0  0  0  0  0
    9.9810   -3.9243    0.0000 O   0  0  0  0  0  0  0  0  0  0  0  0
    9.2273   -3.5887    0.0000 C   0  0  0  0  0  0  0  0  0  0  0  0
    8.5599   -4.0736    0.0000 O   0  0  0  0  0  0  0  0  0  0  0  0
    9.1411   -2.7682    0.0000 C   0  0  0  0  0  0  0  0  0  0  0  0
    8.3874   -2.4327    0.0000 C   0  0  0  0  0  0  0  0  0  0  0  0
    7.6729   -2.8452    0.0000 N   0  0  0  0  0  0  0  0  0  0  0  0
    7.0598   -2.2931    0.0000 N   0  0  0  0  0  0  0  0  0  0  0  0
    7.3954   -1.5395    0.0000 C   0  0  0  0  0  0  0  0  0  0  0  0
    6.9829   -0.8250    0.0000 N   0  0  0  0  0  0  0  0  0  0  0  0
    6.1579   -0.8250    0.0000 C   0  0  0  0  0  0  0  0  0  0  0  0
    5.7454   -0.1105    0.0000 C   0  0  0  0  0  0  0  0  0  0  0  0
    4.9204   -0.1105    0.0000 C   0  0  0  0  0  0  0  0  0  0  0  0
    4.5079   -0.8250    0.0000 C   0  0  0  0  0  0  0  0  0  0  0  0
    4.9204   -1.5395    0.0000 C   0  0  0  0  0  0  0  0  0  0  0  0
    5.7454   -1.5395    0.0000 C   0  0  0  0  0  0  0  0  0  0  0  0
    4.5079   -2.2539    0.0000 N   0  0  0  0  0  0  0  0  0  0  0  0
    4.9204   -2.9684    0.0000 C   0  0  0  0  0  0  0  0  0  0  0  0
    5.7454   -2.9684    0.0000 O   0  0  0  0  0  0  0  0  0  0  0  0
    4.5079   -3.6829    0.0000 C   0  0  2  0  0  0  0  0  0  0  0  0
    4.9204   -4.3974    0.0000 C   0  0  0  0  0  0  0  0  0  0  0  0
    3.6829   -3.6829    0.0000 C   0  0  0  0  0  0  0  0  0  0  0  0
    3.2704   -2.9684    0.0000 C   0  0  0  0  0  0  0  0  0  0  0  0
    2.4454   -2.9684    0.0000 C   0  0  0  0  0  0  0  0  0  0  0  0
    2.0329   -2.2539    0.0000 C   0  0  2  0  0  0  0  0  0  0  0  0
    1.2079   -2.2539    0.0000 N   0  0  0  0  0  0  0  0  0  0  0  0
    0.7954   -2.9684    0.0000 C   0  0  0  0  0  0  0  0  0  0  0  0
   -0.0296   -2.9684    0.0000 C   0  0  0  0  0  0  0  0  0  0  0  0
   -0.4421   -2.2539    0.0000 C   0  0  0  0  0  0  0  0  0  0  0  0
   -1.2671   -2.2539    0.0000 C   0  0  0  0  0  0  0  0  0  0  0  0
   -1.6796   -2.9684    0.0000 C   0  0  0  0  0  0  0  0  0  0  0  0
   -1.2671   -3.6829    0.0000 F   0  0  0  0  0  0  0  0  0  0  0  0
   -2.5046   -2.9684    0.0000 C   0  0  0  0  0  0  0  0  0  0  0  0
   -2.9171   -2.2539    0.0000 C   0  0  0  0  0  0  0  0  0  0  0  0
   -2.5046   -1.5395    0.0000 C   0  0  0  0  0  0  0  0  0  0  0  0
   -2.9171   -0.8250    0.0000 Cl  0  0  0  0  0  0  0  0  0  0  0  0
   -1.6796   -1.5395    0.0000 C   0  0  0  0  0  0  0  0  0  0  0  0
   -1.2671   -0.8250    0.0000 F   0  0  0  0  0  0  0  0  0  0  0  0
   -0.0296   -1.5395    0.0000 C   0  0  0  0  0  0  0  0  0  0  0  0
    0.7954   -1.5395    0.0000 C   0  0  0  0  0  0  0  0  0  0  0  0
    1.2079   -0.8250    0.0000 O   0  0  0  0  0  0  0  0  0  0  0  0
    2.4454   -1.5395    0.0000 C   0  0  0  0  0  0  0  0  0  0  0  0
    3.2704   -1.5395    0.0000 C   0  0  0  0  0  0  0  0  0  0  0  0
    3.6829   -0.8250    0.0000 C   0  0  0  0  0  0  0  0  0  0  0  0
    3.2704   -0.1105    0.0000 C   0  0  0  0  0  0  0  0  0  0  0  0
    2.4454   -0.1105    0.0000 C   0  0  0  0  0  0  0  0  0  0  0  0
    2.0329   -0.8250    0.0000 N   0  0  0  0  0  0  0  0  0  0  0  0
    8.2159   -1.6257    0.0000 O   0  0  0  0  0  0  0  0  0  0  0  0
  1  2  1  0  0  0  0
  2  3  1  0  0  0  0
  3  4  1  0  0  0  0
  4  5  2  0  0  0  0
  4  6  1  0  0  0  0
  6  7  1  0  0  0  0
  7  8  4  0  0  0  0
  8  9  4  0  0  0  0
  9 10  4  0  0  0  0
 10 11  1  0  0  0  0
 11 12  1  0  0  0  0
 12 13  4  0  0  0  0
 13 14  4  0  0  0  0
 14 15  4  0  0  0  0
 15 16  4  0  0  0  0
 16 17  4  0  0  0  0
 12 17  4  0  0  0  0
 16 18  1  0  0  0  0
 18 19  1  0  0  0  0
 19 20  2  0  0  0  0
 19 21  1  0  0  0  0
 21 22  1  6  0  0  0
 21 23  1  0  0  0  0
 23 24  1  0  0  0  0
 24 25  1  0  0  0  0
 25 26  1  0  0  0  0
 26 27  1  6  0  0  0
 27 28  1  0  0  0  0
 28 29  1  0  0  0  0
 29 30  1  0  0  0  0
 30 31  1  0  0  0  0
 31 32  4  0  0  0  0
 32 33  1  0  0  0  0
 32 34  4  0  0  0  0
 34 35  4  0  0  0  0
 35 36  4  0  0  0  0
 36 37  1  0  0  0  0
 36 38  4  0  0  0  0
 31 38  4  0  0  0  0
 38 39  1  0  0  0  0
 30 40  2  0  0  0  0
 40 41  1  0  0  0  0
 27 41  1  0  0  0  0
 41 42  2  0  0  0  0
 26 43  1  0  0  0  0
 43 44  4  0  0  0  0
 44 45  4  0  0  0  0
 15 45  1  0  0  0  0
 45 46  4  0  0  0  0
 46 47  4  0  0  0  0
 47 48  4  0  0  0  0
 43 48  4  0  0  0  0
 10 49  4  0  0  0  0
  7 49  4  0  0  0  0
M  END
>  <CdId>
358708

>  <Mol Weight>
691.124

>  <Formula>
C35H33ClF2N6O5

>  <cmpd_chemblid>
CHEMBL4107368

>  <std_type>
Ki

>  <std_value>
0.45

>  <std_unit>
nM

>  <target_id>
CHEMBL2016

>  <target_name>
Coagulation factor IX

>  <organism>
Homo sapiens

>  <target_type>
SINGLE PROTEIN

$$$$

  Mrv0541 08052111042D          

 42 47  0  0  1  0            999 V2000
    4.7674    0.7556    0.0000 C   0  0  0  0  0  0  0  0  0  0  0  0
    3.9604    0.5840    0.0000 C   0  0  0  0  0  0  0  0  0  0  0  0
    3.7054   -0.2006    0.0000 C   0  0  0  0  0  0  0  0  0  0  0  0
    2.8985   -0.3721    0.0000 C   0  0  0  0  0  0  0  0  0  0  0  0
    2.3464    0.2410    0.0000 C   0  0  0  0  0  0  0  0  0  0  0  0
    2.6014    1.0256    0.0000 C   0  0  0  0  0  0  0  0  0  0  0  0
    3.4084    1.1971    0.0000 C   0  0  0  0  0  0  0  0  0  0  0  0
    1.9339    1.5105    0.0000 C   0  0  0  0  0  0  0  0  0  0  0  0
    1.9339    2.3355    0.0000 C   0  0  0  0  0  0  0  0  0  0  0  0
    1.2195    2.7480    0.0000 O   0  0  0  0  0  0  0  0  0  0  0  0
    2.6484    2.7480    0.0000 C   0  0  0  0  0  0  0  0  0  0  0  0
    3.0609    2.0335    0.0000 F   0  0  0  0  0  0  0  0  0  0  0  0
    2.2359    3.4625    0.0000 F   0  0  0  0  0  0  0  0  0  0  0  0
    3.3629    3.1605    0.0000 F   0  0  0  0  0  0  0  0  0  0  0  0
    1.2665    1.0256    0.0000 C   0  0  0  0  0  0  0  0  0  0  0  0
    1.5214    0.2410    0.0000 N   0  0  0  0  0  0  0  0  0  0  0  0
    0.9694   -0.3721    0.0000 C   0  0  0  0  0  0  0  0  0  0  0  0
    0.1624   -0.2006    0.0000 C   0  0  1  0  0  0  0  0  0  0  0  0
    0.1336   -1.0251    0.0000 N   0  0  0  0  0  0  0  0  0  0  0  0
    0.8333   -1.4623    0.0000 C   0  0  0  0  0  0  0  0  0  0  0  0
    1.5617   -1.0750    0.0000 O   0  0  0  0  0  0  0  0  0  0  0  0
    0.8045   -2.2868    0.0000 C   0  0  0  0  0  0  0  0  0  0  0  0
    1.5041   -2.7240    0.0000 C   0  0  0  0  0  0  0  0  0  0  0  0
    2.2326   -2.3366    0.0000 Cl  0  0  0  0  0  0  0  0  0  0  0  0
    1.4753   -3.5485    0.0000 C   0  0  0  0  0  0  0  0  0  0  0  0
    0.7469   -3.9358    0.0000 C   0  0  0  0  0  0  0  0  0  0  0  0
    0.7181   -4.7603    0.0000 N   0  0  0  0  0  0  0  0  0  0  0  0
    1.3682   -5.2682    0.0000 C   0  0  0  0  0  0  0  0  0  0  0  0
    1.0861   -6.0434    0.0000 N   0  0  0  0  0  0  0  0  0  0  0  0
    0.2616   -6.0146    0.0000 N   0  0  0  0  0  0  0  0  0  0  0  0
    0.0342   -5.2216    0.0000 C   0  0  0  0  0  0  0  0  0  0  0  0
    0.0473   -3.4986    0.0000 C   0  0  0  0  0  0  0  0  0  0  0  0
    0.0761   -2.6741    0.0000 C   0  0  0  0  0  0  0  0  0  0  0  0
   -0.6236   -2.2369    0.0000 Cl  0  0  0  0  0  0  0  0  0  0  0  0
   -0.6545   -0.3154    0.0000 C   0  0  0  0  0  0  0  0  0  0  0  0
   -0.9636   -1.0803    0.0000 C   0  0  0  0  0  0  0  0  0  0  0  0
   -1.7806   -1.1952    0.0000 C   0  0  0  0  0  0  0  0  0  0  0  0
   -2.2885   -0.5450    0.0000 C   0  0  0  0  0  0  0  0  0  0  0  0
   -1.9794    0.2199    0.0000 C   0  0  0  0  0  0  0  0  0  0  0  0
   -1.1625    0.3347    0.0000 C   0  0  0  0  0  0  0  0  0  0  0  0
   -0.0925    0.5840    0.0000 C   0  0  0  0  0  0  0  0  0  0  0  0
    0.4595    1.1971    0.0000 C   0  0  0  0  0  0  0  0  0  0  0  0
  1  2  1  0  0  0  0
  2  3  4  0  0  0  0
  3  4  4  0  0  0  0
  4  5  4  0  0  0  0
  5  6  4  0  0  0  0
  6  7  4  0  0  0  0
  2  7  4  0  0  0  0
  6  8  4  0  0  0  0
  8  9  1  0  0  0  0
  9 10  1  0  0  0  0
  9 11  1  0  0  0  0
 11 12  1  0  0  0  0
 11 13  1  0  0  0  0
 11 14  1  0  0  0  0
  8 15  4  0  0  0  0
 15 16  4  0  0  0  0
  5 16  4  0  0  0  0
 16 17  1  0  0  0  0
 17 18  1  0  0  0  0
 18 19  1  6  0  0  0
 19 20  1  0  0  0  0
 20 21  2  0  0  0  0
 20 22  1  0  0  0  0
 22 23  4  0  0  0  0
 23 24  1  0  0  0  0
 23 25  4  0  0  0  0
 25 26  4  0  0  0  0
 26 27  1  0  0  0  0
 27 28  4  0  0  0  0
 28 29  4  0  0  0  0
 29 30  4  0  0  0  0
 30 31  4  0  0  0  0
 27 31  4  0  0  0  0
 26 32  4  0  0  0  0
 32 33  4  0  0  0  0
 22 33  4  0  0  0  0
 33 34  1  0  0  0  0
 18 35  1  1  0  0  0
 35 36  4  0  0  0  0
 36 37  4  0  0  0  0
 37 38  4  0  0  0  0
 38 39  4  0  0  0  0
 39 40  4  0  0  0  0
 35 40  4  0  0  0  0
 18 41  1  0  0  0  0
 41 42  1  0  0  0  0
 15 42  1  0  0  0  0
M  END
>  <CdId>
358710

>  <Mol Weight>
614.445

>  <Formula>
C30H24Cl2F3N5O2

>  <cmpd_chemblid>
CHEMBL3629109

>  <std_type>
Ki

>  <std_value>
5.5

>  <std_unit>
nM

>  <target_id>
CHEMBL2016

>  <target_name>
Coagulation factor IX

>  <organism>
Homo sapiens

>  <target_type>
SINGLE PROTEIN

$$$$

  Mrv0541 08052111042D          

 41 44  0  0  1  0            999 V2000
    1.4289    0.8250    0.0000 C   0  0  0  0  0  0  0  0  0  0  0  0
    0.7145    1.2375    0.0000 O   0  0  0  0  0  0  0  0  0  0  0  0
    0.0000    0.8250    0.0000 C   0  0  0  0  0  0  0  0  0  0  0  0
   -0.7145    1.2375    0.0000 C   0  0  0  0  0  0  0  0  0  0  0  0
   -1.4289    0.8250    0.0000 C   0  0  0  0  0  0  0  0  0  0  0  0
   -1.4289   -0.0000    0.0000 C   0  0  0  0  0  0  0  0  0  0  0  0
   -2.1434   -0.4125    0.0000 C   0  0  0  0  0  0  0  0  0  0  0  0
   -2.1434   -1.2375    0.0000 C   0  0  0  0  0  0  0  0  0  0  0  0
   -2.8579   -1.6500    0.0000 C   0  0  0  0  0  0  0  0  0  0  0  0
   -3.5724   -1.2375    0.0000 C   0  0  0  0  0  0  0  0  0  0  0  0
   -4.2868   -1.6500    0.0000 C   0  0  0  0  0  0  0  0  0  0  0  0
   -4.2868   -2.4750    0.0000 O   0  0  0  0  0  0  0  0  0  0  0  0
   -5.0013   -1.2375    0.0000 N   0  0  0  0  0  0  0  0  0  0  0  0
   -5.7158   -1.6500    0.0000 C   0  0  2  0  0  0  0  0  0  0  0  0
   -6.4302   -1.2375    0.0000 C   0  0  0  0  0  0  0  0  0  0  0  0
   -7.1447   -1.6500    0.0000 O   0  0  0  0  0  0  0  0  0  0  0  0
   -5.7158   -2.4750    0.0000 C   0  0  0  0  0  0  0  0  0  0  0  0
   -6.5408   -2.4750    0.0000 C   0  0  0  0  0  0  0  0  0  0  0  0
   -4.8908   -2.4750    0.0000 C   0  0  0  0  0  0  0  0  0  0  0  0
   -5.7158   -3.3000    0.0000 C   0  0  0  0  0  0  0  0  0  0  0  0
   -3.5724   -0.4125    0.0000 C   0  0  0  0  0  0  0  0  0  0  0  0
   -2.8579   -0.0000    0.0000 C   0  0  0  0  0  0  0  0  0  0  0  0
   -2.8579    0.8250    0.0000 C   0  0  0  0  0  0  0  0  0  0  0  0
   -2.1434    1.2375    0.0000 O   0  0  0  0  0  0  0  0  0  0  0  0
   -3.5724    1.2375    0.0000 O   0  0  0  0  0  0  0  0  0  0  0  0
   -0.7145   -0.4125    0.0000 C   0  0  0  0  0  0  0  0  0  0  0  0
   -0.7145   -1.2375    0.0000 C   0  0  0  0  0  0  0  0  0  0  0  0
   -1.4289   -1.6500    0.0000 O   0  0  0  0  0  0  0  0  0  0  0  0
    0.0000   -1.6500    0.0000 N   0  0  0  0  0  0  0  0  0  0  0  0
    0.7145   -1.2375    0.0000 C   0  0  0  0  0  0  0  0  0  0  0  0
    0.7145   -0.4125    0.0000 C   0  0  0  0  0  0  0  0  0  0  0  0
    1.4289    0.0000    0.0000 C   0  0  0  0  0  0  0  0  0  0  0  0
    2.1434   -0.4125    0.0000 C   0  0  0  0  0  0  0  0  0  0  0  0
    2.8579    0.0000    0.0000 C   0  0  0  0  0  0  0  0  0  0  0  0
    2.8579    0.8250    0.0000 N   0  0  0  0  0  0  0  0  0  0  0  0
    3.5724   -0.4125    0.0000 N   0  0  0  0  0  0  0  0  0  0  0  0
    3.5724   -1.2375    0.0000 C   0  0  0  0  0  0  0  0  0  0  0  0
    2.8579   -1.6500    0.0000 C   0  0  0  0  0  0  0  0  0  0  0  0
    2.1434   -1.2375    0.0000 C   0  0  0  0  0  0  0  0  0  0  0  0
    1.4289   -1.6500    0.0000 C   0  0  0  0  0  0  0  0  0  0  0  0
    0.0000   -0.0000    0.0000 N   0  0  0  0  0  0  0  0  0  0  0  0
  1  2  1  0  0  0  0
  2  3  1  0  0  0  0
  3  4  4  0  0  0  0
  4  5  4  0  0  0  0
  5  6  4  0  0  0  0
  6  7  1  0  0  0  0
  7  8  4  0  0  0  0
  8  9  4  0  0  0  0
  9 10  4  0  0  0  0
 10 11  1  0  0  0  0
 11 12  2  0  0  0  0
 11 13  1  0  0  0  0
 14 13  1  1  0  0  0
 14 15  1  0  0  0  0
 15 16  1  0  0  0  0
 14 17  1  0  0  0  0
 17 18  1  0  0  0  0
 17 19  1  0  0  0  0
 17 20  1  0  0  0  0
 10 21  4  0  0  0  0
 21 22  4  0  0  0  0
  7 22  4  0  0  0  0
 22 23  1  0  0  0  0
 23 24  2  0  0  0  0
 23 25  1  0  0  0  0
  6 26  4  0  0  0  0
 26 27  1  0  0  0  0
 27 28  2  0  0  0  0
 27 29  1  0  0  0  0
 29 30  1  0  0  0  0
 30 31  4  0  0  0  0
 31 32  4  0  0  0  0
 32 33  4  0  0  0  0
 33 34  4  0  0  0  0
 34 35  1  0  0  0  0
 34 36  4  0  0  0  0
 36 37  4  0  0  0  0
 37 38  4  0  0  0  0
 38 39  4  0  0  0  0
 33 39  4  0  0  0  0
 39 40  4  0  0  0  0
 30 40  4  0  0  0  0
 26 41  4  0  0  0  0
  3 41  4  0  0  0  0
M  END
>  <CdId>
358711

>  <Mol Weight>
557.597

>  <Formula>
C30H31N5O6

>  <cmpd_chemblid>
CHEMBL2417906

>  <std_type>
Ki

>  <std_value>
33.0

>  <std_unit>
nM

>  <target_id>
CHEMBL2016

>  <target_name>
Coagulation factor IX

>  <organism>
Homo sapiens

>  <target_type>
SINGLE PROTEIN

$$$$

  Mrv0541 08052111042D          

 41 45  0  0  1  0            999 V2000
    0.7145    1.2375    0.0000 C   0  0  0  0  0  0  0  0  0  0  0  0
    0.0000    0.8250    0.0000 C   0  0  0  0  0  0  0  0  0  0  0  0
    0.0000    0.0000    0.0000 O   0  0  0  0  0  0  0  0  0  0  0  0
    0.7145   -0.4125    0.0000 C   0  0  0  0  0  0  0  0  0  0  0  0
    1.4289    0.0000    0.0000 C   0  0  0  0  0  0  0  0  0  0  0  0
    2.1434   -0.4125    0.0000 C   0  0  0  0  0  0  0  0  0  0  0  0
    2.8579    0.0000    0.0000 C   0  0  0  0  0  0  0  0  0  0  0  0
    2.8579    0.8250    0.0000 N   0  0  0  0  0  0  0  0  0  0  0  0
    3.5724   -0.4125    0.0000 N   0  0  0  0  0  0  0  0  0  0  0  0
    3.5724   -1.2375    0.0000 C   0  0  0  0  0  0  0  0  0  0  0  0
    2.8579   -1.6500    0.0000 C   0  0  0  0  0  0  0  0  0  0  0  0
    2.1434   -1.2375    0.0000 C   0  0  0  0  0  0  0  0  0  0  0  0
    1.4289   -1.6500    0.0000 C   0  0  0  0  0  0  0  0  0  0  0  0
    0.7145   -1.2375    0.0000 C   0  0  0  0  0  0  0  0  0  0  0  0
    0.0000   -1.6500    0.0000 C   0  0  0  0  0  0  0  0  0  0  0  0
    0.0000   -2.4750    0.0000 C   0  0  2  0  0  0  0  0  0  0  0  0
   -0.7145   -2.8875    0.0000 C   0  0  0  0  0  0  0  0  0  0  0  0
   -0.7145   -3.7125    0.0000 O   0  0  0  0  0  0  0  0  0  0  0  0
   -1.4289   -2.4750    0.0000 O   0  0  0  0  0  0  0  0  0  0  0  0
    0.7145   -2.8875    0.0000 N   0  0  0  0  0  0  0  0  0  0  0  0
    1.4681   -2.5519    0.0000 C   0  0  0  0  0  0  0  0  0  0  0  0
    2.0202   -3.1650    0.0000 C   0  0  0  0  0  0  0  0  0  0  0  0
    1.6077   -3.8795    0.0000 C   0  0  2  0  0  0  0  0  0  0  0  0
    1.9432   -4.6332    0.0000 N   0  0  0  0  0  0  0  0  0  0  0  0
    2.7637   -4.7194    0.0000 S   0  0  0  0  0  0  0  0  0  0  0  0
    2.6775   -5.5399    0.0000 O   0  0  0  0  0  0  0  0  0  0  0  0
    2.8500   -3.8989    0.0000 O   0  0  0  0  0  0  0  0  0  0  0  0
    3.5842   -4.8057    0.0000 C   0  0  0  0  0  0  0  0  0  0  0  0
    4.1362   -4.1926    0.0000 C   0  0  0  0  0  0  0  0  0  0  0  0
    4.8899   -4.5281    0.0000 N   0  0  0  0  0  0  0  0  0  0  0  0
    4.8037   -5.3486    0.0000 C   0  0  0  0  0  0  0  0  0  0  0  0
    5.4168   -5.9006    0.0000 N   0  0  0  0  0  0  0  0  0  0  0  0
    6.2237   -5.7291    0.0000 C   0  0  0  0  0  0  0  0  0  0  0  0
    6.6362   -6.4436    0.0000 C   0  0  0  0  0  0  0  0  0  0  0  0
    6.0842   -7.0567    0.0000 C   0  0  0  0  0  0  0  0  0  0  0  0
    6.7516   -7.5416    0.0000 F   0  0  0  0  0  0  0  0  0  0  0  0
    5.6717   -7.7711    0.0000 F   0  0  0  0  0  0  0  0  0  0  0  0
    5.3305   -6.7211    0.0000 C   0  0  0  0  0  0  0  0  0  0  0  0
    3.9967   -5.5201    0.0000 S   0  0  0  0  0  0  0  0  0  0  0  0
    0.8007   -3.7080    0.0000 C   0  0  0  0  0  0  0  0  0  0  0  0
    0.1876   -4.2600    0.0000 O   0  0  0  0  0  0  0  0  0  0  0  0
  1  2  1  0  0  0  0
  2  3  1  0  0  0  0
  3  4  1  0  0  0  0
  4  5  4  0  0  0  0
  5  6  4  0  0  0  0
  6  7  4  0  0  0  0
  7  8  1  0  0  0  0
  7  9  4  0  0  0  0
  9 10  4  0  0  0  0
 10 11  4  0  0  0  0
 11 12  4  0  0  0  0
  6 12  4  0  0  0  0
 12 13  4  0  0  0  0
 13 14  4  0  0  0  0
  4 14  4  0  0  0  0
 14 15  1  0  0  0  0
 15 16  1  0  0  0  0
 16 17  1  0  0  0  0
 17 18  2  0  0  0  0
 17 19  1  0  0  0  0
 16 20  1  1  0  0  0
 20 21  1  0  0  0  0
 21 22  1  0  0  0  0
 22 23  1  0  0  0  0
 23 24  1  6  0  0  0
 24 25  1  0  0  0  0
 25 26  2  0  0  0  0
 25 27  2  0  0  0  0
 25 28  1  0  0  0  0
 28 29  4  0  0  0  0
 29 30  4  0  0  0  0
 30 31  4  0  0  0  0
 31 32  1  0  0  0  0
 32 33  1  0  0  0  0
 33 34  1  0  0  0  0
 34 35  1  0  0  0  0
 35 36  1  0  0  0  0
 35 37  1  0  0  0  0
 35 38  1  0  0  0  0
 32 38  1  0  0  0  0
 31 39  4  0  0  0  0
 28 39  4  0  0  0  0
 23 40  1  0  0  0  0
 20 40  1  0  0  0  0
 40 41  2  0  0  0  0
M  END
>  <CdId>
358713

>  <Mol Weight>
610.653

>  <Formula>
C25H28F2N6O6S2

>  <cmpd_chemblid>
CHEMBL3890582

>  <std_type>
Ki

>  <std_value>
80.0

>  <std_unit>
nM

>  <target_id>
CHEMBL2016

>  <target_name>
Coagulation factor IX

>  <organism>
Homo sapiens

>  <target_type>
SINGLE PROTEIN

$$$$

  Mrv0541 08052111042D          

 42 46  0  0  1  0            999 V2000
    1.4289    2.4750    0.0000 C   0  0  0  0  0  0  0  0  0  0  0  0
    0.7145    2.0625    0.0000 O   0  0  0  0  0  0  0  0  0  0  0  0
    0.7145    1.2375    0.0000 C   0  0  0  0  0  0  0  0  0  0  0  0
    1.4289    0.8250    0.0000 O   0  0  0  0  0  0  0  0  0  0  0  0
    0.0000    0.8250    0.0000 C   0  0  1  0  0  0  0  0  0  0  0  0
    0.0000    0.0000    0.0000 C   0  0  0  0  0  0  0  0  0  0  0  0
    0.7145   -0.4125    0.0000 C   0  0  0  0  0  0  0  0  0  0  0  0
    1.4289    0.0000    0.0000 C   0  0  0  0  0  0  0  0  0  0  0  0
    2.1434   -0.4125    0.0000 C   0  0  0  0  0  0  0  0  0  0  0  0
    2.8579    0.0000    0.0000 C   0  0  0  0  0  0  0  0  0  0  0  0
    3.5724   -0.4125    0.0000 C   0  0  0  0  0  0  0  0  0  0  0  0
    3.5724   -1.2375    0.0000 N   0  0  0  0  0  0  0  0  0  0  0  0
    2.8579   -1.6500    0.0000 C   0  0  0  0  0  0  0  0  0  0  0  0
    2.8579   -2.4750    0.0000 N   0  0  0  0  0  0  0  0  0  0  0  0
    2.1434   -1.2375    0.0000 C   0  0  0  0  0  0  0  0  0  0  0  0
    1.4289   -1.6500    0.0000 C   0  0  0  0  0  0  0  0  0  0  0  0
    0.7145   -1.2375    0.0000 C   0  0  0  0  0  0  0  0  0  0  0  0
    0.0000   -1.6500    0.0000 O   0  0  0  0  0  0  0  0  0  0  0  0
   -0.7145   -1.2375    0.0000 C   0  0  0  0  0  0  0  0  0  0  0  0
   -0.3020   -0.5230    0.0000 F   0  0  0  0  0  0  0  0  0  0  0  0
   -1.1270   -1.9520    0.0000 F   0  0  0  0  0  0  0  0  0  0  0  0
   -1.4289   -0.8250    0.0000 F   0  0  0  0  0  0  0  0  0  0  0  0
   -0.7145    1.2375    0.0000 N   0  0  0  0  0  0  0  0  0  0  0  0
   -1.4681    0.9019    0.0000 C   0  0  0  0  0  0  0  0  0  0  0  0
   -2.0202    1.5150    0.0000 C   0  0  0  0  0  0  0  0  0  0  0  0
   -1.6077    2.2295    0.0000 C   0  0  2  0  0  0  0  0  0  0  0  0
   -1.9432    2.9832    0.0000 N   0  0  0  0  0  0  0  0  0  0  0  0
   -2.7637    3.0694    0.0000 S   0  0  0  0  0  0  0  0  0  0  0  0
   -2.6775    3.8899    0.0000 O   0  0  0  0  0  0  0  0  0  0  0  0
   -2.8500    2.2489    0.0000 O   0  0  0  0  0  0  0  0  0  0  0  0
   -3.5842    3.1557    0.0000 C   0  0  0  0  0  0  0  0  0  0  0  0
   -4.1362    2.5426    0.0000 C   0  0  0  0  0  0  0  0  0  0  0  0
   -4.8899    2.8781    0.0000 N   0  0  0  0  0  0  0  0  0  0  0  0
   -4.8037    3.6986    0.0000 C   0  0  0  0  0  0  0  0  0  0  0  0
   -5.4168    4.2506    0.0000 N   0  0  0  0  0  0  0  0  0  0  0  0
   -6.2237    4.0791    0.0000 C   0  0  0  0  0  0  0  0  0  0  0  0
   -6.6362    4.7936    0.0000 C   0  0  0  0  0  0  0  0  0  0  0  0
   -6.0842    5.4067    0.0000 C   0  0  0  0  0  0  0  0  0  0  0  0
   -5.3305    5.0711    0.0000 C   0  0  0  0  0  0  0  0  0  0  0  0
   -3.9967    3.8701    0.0000 S   0  0  0  0  0  0  0  0  0  0  0  0
   -0.8007    2.0580    0.0000 C   0  0  0  0  0  0  0  0  0  0  0  0
   -0.1876    2.6100    0.0000 O   0  0  0  0  0  0  0  0  0  0  0  0
  1  2  1  0  0  0  0
  2  3  1  0  0  0  0
  3  4  2  0  0  0  0
  3  5  1  0  0  0  0
  5  6  1  0  0  0  0
  6  7  1  0  0  0  0
  7  8  4  0  0  0  0
  8  9  4  0  0  0  0
  9 10  4  0  0  0  0
 10 11  4  0  0  0  0
 11 12  4  0  0  0  0
 12 13  4  0  0  0  0
 13 14  1  0  0  0  0
 13 15  4  0  0  0  0
  9 15  4  0  0  0  0
 15 16  4  0  0  0  0
 16 17  4  0  0  0  0
  7 17  4  0  0  0  0
 17 18  1  0  0  0  0
 18 19  1  0  0  0  0
 19 20  1  0  0  0  0
 19 21  1  0  0  0  0
 19 22  1  0  0  0  0
  5 23  1  1  0  0  0
 23 24  1  0  0  0  0
 24 25  1  0  0  0  0
 25 26  1  0  0  0  0
 26 27  1  6  0  0  0
 27 28  1  0  0  0  0
 28 29  2  0  0  0  0
 28 30  2  0  0  0  0
 28 31  1  0  0  0  0
 31 32  4  0  0  0  0
 32 33  4  0  0  0  0
 33 34  4  0  0  0  0
 34 35  1  0  0  0  0
 35 36  1  0  0  0  0
 36 37  1  0  0  0  0
 37 38  1  0  0  0  0
 38 39  1  0  0  0  0
 35 39  1  0  0  0  0
 34 40  4  0  0  0  0
 31 40  4  0  0  0  0
 26 41  1  0  0  0  0
 23 41  1  0  0  0  0
 41 42  2  0  0  0  0
M  END
>  <CdId>
358715

>  <Mol Weight>
628.644

>  <Formula>
C25H27F3N6O6S2

>  <cmpd_chemblid>
CHEMBL3954217

>  <std_type>
Ki

>  <std_value>
545.0

>  <std_unit>
nM

>  <target_id>
CHEMBL2016

>  <target_name>
Coagulation factor IX

>  <organism>
Homo sapiens

>  <target_type>
SINGLE PROTEIN

$$$$

  Mrv0541 08052111042D          

 31 35  0  0  0  0            999 V2000
   -0.3025   -0.4039    0.0000 C   0  0  0  0  0  0  0  0  0  0  0  0
   -0.0476   -1.1885    0.0000 C   0  0  0  0  0  0  0  0  0  0  0  0
   -0.5996   -1.8016    0.0000 C   0  0  0  0  0  0  0  0  0  0  0  0
   -0.3446   -2.5862    0.0000 C   0  0  0  0  0  0  0  0  0  0  0  0
    0.4623   -2.7578    0.0000 C   0  0  0  0  0  0  0  0  0  0  0  0
    0.7173   -3.5424    0.0000 O   0  0  0  0  0  0  0  0  0  0  0  0
    1.0144   -2.1447    0.0000 C   0  0  0  0  0  0  0  0  0  0  0  0
    1.8394   -2.1447    0.0000 C   0  0  0  0  0  0  0  0  0  0  0  0
    2.0943   -1.3601    0.0000 C   0  0  0  0  0  0  0  0  0  0  0  0
    1.4269   -0.8751    0.0000 N   0  0  0  0  0  0  0  0  0  0  0  0
    0.7594   -1.3601    0.0000 N   0  0  0  0  0  0  0  0  0  0  0  0
    2.9013   -1.1885    0.0000 C   0  0  0  0  0  0  0  0  0  0  0  0
    3.4533   -1.8016    0.0000 C   0  0  0  0  0  0  0  0  0  0  0  0
    3.1984   -2.5862    0.0000 C   0  0  0  0  0  0  0  0  0  0  0  0
    4.0153   -2.7011    0.0000 C   0  0  0  0  0  0  0  0  0  0  0  0
    3.2272   -3.4107    0.0000 N   0  0  0  0  0  0  0  0  0  0  0  0
    3.9556   -3.7981    0.0000 C   0  0  0  0  0  0  0  0  0  0  0  0
    4.6552   -3.3609    0.0000 O   0  0  0  0  0  0  0  0  0  0  0  0
    3.9844   -4.6226    0.0000 C   0  0  0  0  0  0  0  0  0  0  0  0
    4.7128   -5.0099    0.0000 C   0  0  0  0  0  0  0  0  0  0  0  0
    4.7416   -5.8344    0.0000 C   0  0  0  0  0  0  0  0  0  0  0  0
    4.0420   -6.2715    0.0000 C   0  0  0  0  0  0  0  0  0  0  0  0
    4.0708   -7.0960    0.0000 N   0  0  0  0  0  0  0  0  0  0  0  0
    4.7547   -7.5574    0.0000 C   0  0  0  0  0  0  0  0  0  0  0  0
    4.5273   -8.3504    0.0000 N   0  0  0  0  0  0  0  0  0  0  0  0
    3.7028   -8.3792    0.0000 C   0  0  0  0  0  0  0  0  0  0  0  0
    3.4206   -7.6040    0.0000 N   0  0  0  0  0  0  0  0  0  0  0  0
    3.3135   -5.8842    0.0000 C   0  0  0  0  0  0  0  0  0  0  0  0
    3.2847   -5.0597    0.0000 C   0  0  0  0  0  0  0  0  0  0  0  0
    2.5563   -4.6724    0.0000 Cl  0  0  0  0  0  0  0  0  0  0  0  0
    2.3914   -2.7578    0.0000 C   0  0  0  0  0  0  0  0  0  0  0  0
  1  2  1  0  0  0  0
  2  3  4  0  0  0  0
  3  4  4  0  0  0  0
  4  5  4  0  0  0  0
  5  6  1  0  0  0  0
  5  7  4  0  0  0  0
  7  8  4  0  0  0  0
  8  9  4  0  0  0  0
  9 10  4  0  0  0  0
 10 11  4  0  0  0  0
  2 11  4  0  0  0  0
  7 11  4  0  0  0  0
  9 12  1  0  0  0  0
 12 13  1  0  0  0  0
 13 14  1  0  0  0  0
 14 15  1  0  0  0  0
 14 16  1  0  0  0  0
 16 17  1  0  0  0  0
 17 18  2  0  0  0  0
 17 19  1  0  0  0  0
 19 20  4  0  0  0  0
 20 21  4  0  0  0  0
 21 22  4  0  0  0  0
 22 23  1  0  0  0  0
 23 24  4  0  0  0  0
 24 25  4  0  0  0  0
 25 26  4  0  0  0  0
 26 27  4  0  0  0  0
 23 27  4  0  0  0  0
 22 28  4  0  0  0  0
 28 29  4  0  0  0  0
 19 29  4  0  0  0  0
 29 30  1  0  0  0  0
 14 31  1  0  0  0  0
  8 31  1  0  0  0  0
M  END
>  <CdId>
358716

>  <Mol Weight>
436.894

>  <Formula>
C22H21ClN6O2

>  <cmpd_chemblid>
CHEMBL3421647

>  <std_type>
Ki

>  <std_value>
156.0

>  <std_unit>
nM

>  <target_id>
CHEMBL2016

>  <target_name>
Coagulation factor IX

>  <organism>
Homo sapiens

>  <target_type>
SINGLE PROTEIN

$$$$

  Mrv0541 08052111042D          

 41 45  0  0  1  0            999 V2000
    8.6329   -2.2539    0.0000 C   0  0  0  0  0  0  0  0  0  0  0  0
    8.2204   -1.5395    0.0000 O   0  0  0  0  0  0  0  0  0  0  0  0
    7.3954   -1.5395    0.0000 C   0  0  0  0  0  0  0  0  0  0  0  0
    6.9829   -2.2539    0.0000 O   0  0  0  0  0  0  0  0  0  0  0  0
    6.9829   -0.8250    0.0000 N   0  0  0  0  0  0  0  0  0  0  0  0
    6.1579   -0.8250    0.0000 C   0  0  0  0  0  0  0  0  0  0  0  0
    5.7454   -0.1105    0.0000 C   0  0  0  0  0  0  0  0  0  0  0  0
    4.9204   -0.1105    0.0000 C   0  0  0  0  0  0  0  0  0  0  0  0
    4.5079   -0.8250    0.0000 C   0  0  0  0  0  0  0  0  0  0  0  0
    4.9204   -1.5395    0.0000 C   0  0  0  0  0  0  0  0  0  0  0  0
    5.7454   -1.5395    0.0000 C   0  0  0  0  0  0  0  0  0  0  0  0
    4.5079   -2.2539    0.0000 N   0  0  0  0  0  0  0  0  0  0  0  0
    4.9204   -2.9684    0.0000 C   0  0  0  0  0  0  0  0  0  0  0  0
    5.7454   -2.9684    0.0000 O   0  0  0  0  0  0  0  0  0  0  0  0
    4.5079   -3.6829    0.0000 C   0  0  2  0  0  0  0  0  0  0  0  0
    4.9204   -4.3974    0.0000 C   0  0  0  0  0  0  0  0  0  0  0  0
    3.6829   -3.6829    0.0000 C   0  0  0  0  0  0  0  0  0  0  0  0
    3.2704   -2.9684    0.0000 C   0  0  0  0  0  0  0  0  0  0  0  0
    2.4454   -2.9684    0.0000 C   0  0  0  0  0  0  0  0  0  0  0  0
    2.0329   -2.2539    0.0000 C   0  0  2  0  0  0  0  0  0  0  0  0
    1.2079   -2.2539    0.0000 N   0  0  0  0  0  0  0  0  0  0  0  0
    0.7954   -2.9684    0.0000 C   0  0  0  0  0  0  0  0  0  0  0  0
   -0.0296   -2.9684    0.0000 C   0  0  0  0  0  0  0  0  0  0  0  0
   -0.4421   -2.2539    0.0000 C   0  0  0  0  0  0  0  0  0  0  0  0
   -1.2671   -2.2539    0.0000 C   0  0  0  0  0  0  0  0  0  0  0  0
   -1.6796   -2.9684    0.0000 C   0  0  0  0  0  0  0  0  0  0  0  0
   -2.5046   -2.9684    0.0000 C   0  0  0  0  0  0  0  0  0  0  0  0
   -2.9171   -2.2539    0.0000 C   0  0  0  0  0  0  0  0  0  0  0  0
   -2.5046   -1.5395    0.0000 C   0  0  0  0  0  0  0  0  0  0  0  0
   -2.9171   -0.8250    0.0000 C   0  0  0  0  0  0  0  0  0  0  0  0
   -1.6796   -1.5395    0.0000 C   0  0  0  0  0  0  0  0  0  0  0  0
   -1.2671   -0.8250    0.0000 F   0  0  0  0  0  0  0  0  0  0  0  0
   -0.0296   -1.5395    0.0000 C   0  0  0  0  0  0  0  0  0  0  0  0
    0.7954   -1.5395    0.0000 C   0  0  0  0  0  0  0  0  0  0  0  0
    1.2079   -0.8250    0.0000 O   0  0  0  0  0  0  0  0  0  0  0  0
    2.4454   -1.5395    0.0000 C   0  0  0  0  0  0  0  0  0  0  0  0
    3.2704   -1.5395    0.0000 C   0  0  0  0  0  0  0  0  0  0  0  0
    3.6829   -0.8250    0.0000 C   0  0  0  0  0  0  0  0  0  0  0  0
    3.2704   -0.1105    0.0000 C   0  0  0  0  0  0  0  0  0  0  0  0
    2.4454   -0.1105    0.0000 C   0  0  0  0  0  0  0  0  0  0  0  0
    2.0329   -0.8250    0.0000 N   0  0  0  0  0  0  0  0  0  0  0  0
  1  2  1  0  0  0  0
  2  3  1  0  0  0  0
  3  4  2  0  0  0  0
  3  5  1  0  0  0  0
  5  6  1  0  0  0  0
  6  7  4  0  0  0  0
  7  8  4  0  0  0  0
  8  9  4  0  0  0  0
  9 10  4  0  0  0  0
 10 11  4  0  0  0  0
  6 11  4  0  0  0  0
 10 12  1  0  0  0  0
 12 13  1  0  0  0  0
 13 14  2  0  0  0  0
 13 15  1  0  0  0  0
 15 16  1  6  0  0  0
 15 17  1  0  0  0  0
 17 18  1  0  0  0  0
 18 19  1  0  0  0  0
 19 20  1  0  0  0  0
 20 21  1  6  0  0  0
 21 22  1  0  0  0  0
 22 23  1  0  0  0  0
 23 24  1  0  0  0  0
 24 25  1  0  0  0  0
 25 26  4  0  0  0  0
 26 27  4  0  0  0  0
 27 28  4  0  0  0  0
 28 29  4  0  0  0  0
 29 30  1  0  0  0  0
 29 31  4  0  0  0  0
 25 31  4  0  0  0  0
 31 32  1  0  0  0  0
 24 33  2  0  0  0  0
 33 34  1  0  0  0  0
 21 34  1  0  0  0  0
 34 35  2  0  0  0  0
 20 36  1  0  0  0  0
 36 37  4  0  0  0  0
 37 38  4  0  0  0  0
  9 38  1  0  0  0  0
 38 39  4  0  0  0  0
 39 40  4  0  0  0  0
 40 41  4  0  0  0  0
 36 41  4  0  0  0  0
M  END
>  <CdId>
358717

>  <Mol Weight>
556.6272

>  <Formula>
C32H33FN4O4

>  <cmpd_chemblid>
CHEMBL4107139

>  <std_type>
Ki

>  <std_value>
5.85

>  <std_unit>
nM

>  <target_id>
CHEMBL2016

>  <target_name>
Coagulation factor IX

>  <organism>
Homo sapiens

>  <target_type>
SINGLE PROTEIN

$$$$

  Mrv0541 08052111042D          

 41 46  0  0  1  0            999 V2000
    0.4786   -2.0538    0.0000 C   0  0  0  0  0  0  0  0  0  0  0  0
   -0.2751   -1.7182    0.0000 C   0  0  0  0  0  0  0  0  0  0  0  0
   -0.9896   -2.1307    0.0000 N   0  0  0  0  0  0  0  0  0  0  0  0
   -1.6027   -1.5787    0.0000 C   0  0  0  0  0  0  0  0  0  0  0  0
   -1.2671   -0.8250    0.0000 N   0  0  0  0  0  0  0  0  0  0  0  0
   -1.6796   -0.1105    0.0000 C   0  0  0  0  0  0  0  0  0  0  0  0
   -2.5046   -0.1105    0.0000 C   0  0  0  0  0  0  0  0  0  0  0  0
   -2.9171    0.6039    0.0000 C   0  0  0  0  0  0  0  0  0  0  0  0
   -2.5046    1.3184    0.0000 C   0  0  0  0  0  0  0  0  0  0  0  0
   -2.9171    2.0329    0.0000 Cl  0  0  0  0  0  0  0  0  0  0  0  0
   -1.6796    1.3184    0.0000 C   0  0  0  0  0  0  0  0  0  0  0  0
   -1.2671    0.6039    0.0000 C   0  0  0  0  0  0  0  0  0  0  0  0
   -0.4421    0.6039    0.0000 C   0  0  0  0  0  0  0  0  0  0  0  0
   -0.0296    1.3184    0.0000 C   0  0  0  0  0  0  0  0  0  0  0  0
    0.7954    1.3184    0.0000 C   0  0  0  0  0  0  0  0  0  0  0  0
    1.2079    2.0329    0.0000 O   0  0  0  0  0  0  0  0  0  0  0  0
    1.2079    0.6039    0.0000 N   0  0  0  0  0  0  0  0  0  0  0  0
    2.0329    0.6039    0.0000 C   0  0  1  0  0  0  0  0  0  0  0  0
    2.4454    1.3184    0.0000 C   0  0  0  0  0  0  0  0  0  0  0  0
    3.2704    1.3184    0.0000 C   0  0  0  0  0  0  0  0  0  0  0  0
    3.6829    2.0329    0.0000 C   0  0  0  0  0  0  0  0  0  0  0  0
    4.5079    2.0329    0.0000 C   0  0  1  0  0  0  0  0  0  0  0  0
    4.9204    2.7474    0.0000 C   0  0  0  0  0  0  0  0  0  0  0  0
    4.9204    1.3184    0.0000 C   0  0  0  0  0  0  0  0  0  0  0  0
    5.7454    1.3184    0.0000 O   0  0  0  0  0  0  0  0  0  0  0  0
    4.5079    0.6039    0.0000 N   0  0  0  0  0  0  0  0  0  0  0  0
    4.9204   -0.1105    0.0000 C   0  0  0  0  0  0  0  0  0  0  0  0
    5.7454   -0.1105    0.0000 C   0  0  0  0  0  0  0  0  0  0  0  0
    6.1579   -0.8250    0.0000 C   0  0  0  0  0  0  0  0  0  0  0  0
    5.7454   -1.5395    0.0000 C   0  0  0  0  0  0  0  0  0  0  0  0
    4.9204   -1.5395    0.0000 C   0  0  0  0  0  0  0  0  0  0  0  0
    4.5079   -0.8250    0.0000 C   0  0  0  0  0  0  0  0  0  0  0  0
    3.6829   -0.8250    0.0000 C   0  0  0  0  0  0  0  0  0  0  0  0
    3.2704   -1.5395    0.0000 C   0  0  0  0  0  0  0  0  0  0  0  0
    2.4454   -1.5395    0.0000 C   0  0  0  0  0  0  0  0  0  0  0  0
    2.0329   -0.8250    0.0000 N   0  0  0  0  0  0  0  0  0  0  0  0
    2.4454   -0.1105    0.0000 C   0  0  0  0  0  0  0  0  0  0  0  0
    3.2704   -0.1105    0.0000 C   0  0  0  0  0  0  0  0  0  0  0  0
    0.7954   -0.1105    0.0000 C   0  0  0  0  0  0  0  0  0  0  0  0
   -0.0296   -0.1105    0.0000 C   0  0  0  0  0  0  0  0  0  0  0  0
   -0.4466   -0.9112    0.0000 N   0  0  0  0  0  0  0  0  0  0  0  0
  1  2  1  0  0  0  0
  2  3  4  0  0  0  0
  3  4  4  0  0  0  0
  4  5  4  0  0  0  0
  5  6  1  0  0  0  0
  6  7  4  0  0  0  0
  7  8  4  0  0  0  0
  8  9  4  0  0  0  0
  9 10  1  0  0  0  0
  9 11  4  0  0  0  0
 11 12  4  0  0  0  0
  6 12  4  0  0  0  0
 12 13  1  0  0  0  0
 13 14  2  0  0  0  0
 14 15  1  0  0  0  0
 15 16  2  0  0  0  0
 15 17  1  0  0  0  0
 18 17  1  1  0  0  0
 18 19  1  0  0  0  0
 19 20  1  0  0  0  0
 20 21  1  0  0  0  0
 21 22  1  0  0  0  0
 22 23  1  1  0  0  0
 22 24  1  0  0  0  0
 24 25  2  0  0  0  0
 24 26  1  0  0  0  0
 26 27  1  0  0  0  0
 27 28  4  0  0  0  0
 28 29  4  0  0  0  0
 29 30  4  0  0  0  0
 30 31  4  0  0  0  0
 31 32  4  0  0  0  0
 27 32  4  0  0  0  0
 32 33  1  0  0  0  0
 33 34  4  0  0  0  0
 34 35  4  0  0  0  0
 35 36  4  0  0  0  0
 36 37  4  0  0  0  0
 18 37  1  0  0  0  0
 37 38  4  0  0  0  0
 33 38  4  0  0  0  0
 17 39  1  0  0  0  0
 39 40  1  0  0  0  0
 13 40  1  0  0  0  0
  5 41  4  0  0  0  0
  2 41  4  0  0  0  0
M  END
>  <CdId>
358719

>  <Mol Weight>
567.081

>  <Formula>
C32H31ClN6O2

>  <cmpd_chemblid>
CHEMBL4107263

>  <std_type>
Ki

>  <std_value>
40.15

>  <std_unit>
nM

>  <target_id>
CHEMBL2016

>  <target_name>
Coagulation factor IX

>  <organism>
Homo sapiens

>  <target_type>
SINGLE PROTEIN

$$$$

  Mrv0541 08052111042D          

 38 41  0  0  1  0            999 V2000
    0.0000    0.8250    0.0000 C   0  0  0  0  0  0  0  0  0  0  0  0
    0.0000    0.0000    0.0000 O   0  0  0  0  0  0  0  0  0  0  0  0
    0.7145   -0.4125    0.0000 C   0  0  0  0  0  0  0  0  0  0  0  0
    1.4289    0.0000    0.0000 C   0  0  0  0  0  0  0  0  0  0  0  0
    2.1434   -0.4125    0.0000 C   0  0  0  0  0  0  0  0  0  0  0  0
    2.8579    0.0000    0.0000 C   0  0  0  0  0  0  0  0  0  0  0  0
    2.8579    0.8250    0.0000 N   0  0  0  0  0  0  0  0  0  0  0  0
    3.5724   -0.4125    0.0000 N   0  0  0  0  0  0  0  0  0  0  0  0
    3.5724   -1.2375    0.0000 C   0  0  0  0  0  0  0  0  0  0  0  0
    2.8579   -1.6500    0.0000 C   0  0  0  0  0  0  0  0  0  0  0  0
    2.1434   -1.2375    0.0000 C   0  0  0  0  0  0  0  0  0  0  0  0
    1.4289   -1.6500    0.0000 C   0  0  0  0  0  0  0  0  0  0  0  0
    0.7145   -1.2375    0.0000 C   0  0  0  0  0  0  0  0  0  0  0  0
    0.0000   -1.6500    0.0000 C   0  0  0  0  0  0  0  0  0  0  0  0
    0.0000   -2.4750    0.0000 C   0  0  2  0  0  0  0  0  0  0  0  0
   -0.7145   -2.8875    0.0000 C   0  0  0  0  0  0  0  0  0  0  0  0
   -0.7145   -3.7125    0.0000 O   0  0  0  0  0  0  0  0  0  0  0  0
   -1.4289   -2.4750    0.0000 O   0  0  0  0  0  0  0  0  0  0  0  0
    0.7145   -2.8875    0.0000 N   0  0  0  0  0  0  0  0  0  0  0  0
    1.4681   -2.5519    0.0000 C   0  0  0  0  0  0  0  0  0  0  0  0
    2.0202   -3.1650    0.0000 C   0  0  0  0  0  0  0  0  0  0  0  0
    1.6077   -3.8795    0.0000 C   0  0  2  0  0  0  0  0  0  0  0  0
    1.9432   -4.6332    0.0000 N   0  0  0  0  0  0  0  0  0  0  0  0
    1.4583   -5.3006    0.0000 S   0  0  0  0  0  0  0  0  0  0  0  0
    0.7909   -4.8157    0.0000 O   0  0  0  0  0  0  0  0  0  0  0  0
    2.1258   -5.7855    0.0000 O   0  0  0  0  0  0  0  0  0  0  0  0
    0.9734   -5.9681    0.0000 C   0  0  0  0  0  0  0  0  0  0  0  0
    1.3089   -6.7217    0.0000 C   0  0  0  0  0  0  0  0  0  0  0  0
    0.8240   -7.3892    0.0000 N   0  0  0  0  0  0  0  0  0  0  0  0
    0.0035   -7.3029    0.0000 C   0  0  0  0  0  0  0  0  0  0  0  0
   -0.4814   -7.9704    0.0000 N   0  0  0  0  0  0  0  0  0  0  0  0
   -0.1458   -8.7241    0.0000 C   0  0  0  0  0  0  0  0  0  0  0  0
   -1.3019   -7.8841    0.0000 C   0  0  0  0  0  0  0  0  0  0  0  0
   -0.3320   -6.5493    0.0000 C   0  0  0  0  0  0  0  0  0  0  0  0
   -1.1525   -6.4630    0.0000 Cl  0  0  0  0  0  0  0  0  0  0  0  0
    0.1529   -5.8818    0.0000 C   0  0  0  0  0  0  0  0  0  0  0  0
    0.8007   -3.7080    0.0000 C   0  0  0  0  0  0  0  0  0  0  0  0
    0.1876   -4.2600    0.0000 O   0  0  0  0  0  0  0  0  0  0  0  0
  1  2  1  0  0  0  0
  2  3  1  0  0  0  0
  3  4  4  0  0  0  0
  4  5  4  0  0  0  0
  5  6  4  0  0  0  0
  6  7  1  0  0  0  0
  6  8  4  0  0  0  0
  8  9  4  0  0  0  0
  9 10  4  0  0  0  0
 10 11  4  0  0  0  0
  5 11  4  0  0  0  0
 11 12  4  0  0  0  0
 12 13  4  0  0  0  0
  3 13  4  0  0  0  0
 13 14  1  0  0  0  0
 14 15  1  0  0  0  0
 15 16  1  0  0  0  0
 16 17  2  0  0  0  0
 16 18  1  0  0  0  0
 15 19  1  1  0  0  0
 19 20  1  0  0  0  0
 20 21  1  0  0  0  0
 21 22  1  0  0  0  0
 22 23  1  6  0  0  0
 23 24  1  0  0  0  0
 24 25  2  0  0  0  0
 24 26  2  0  0  0  0
 24 27  1  0  0  0  0
 27 28  4  0  0  0  0
 28 29  4  0  0  0  0
 29 30  4  0  0  0  0
 30 31  1  0  0  0  0
 31 32  1  0  0  0  0
 31 33  1  0  0  0  0
 30 34  4  0  0  0  0
 34 35  1  0  0  0  0
 34 36  4  0  0  0  0
 27 36  4  0  0  0  0
 22 37  1  0  0  0  0
 19 37  1  0  0  0  0
 37 38  2  0  0  0  0
M  END
>  <CdId>
358720

>  <Mol Weight>
563.026

>  <Formula>
C24H27ClN6O6S

>  <cmpd_chemblid>
CHEMBL3965151

>  <std_type>
Ki

>  <std_value>
60.0

>  <std_unit>
nM

>  <target_id>
CHEMBL2016

>  <target_name>
Coagulation factor IX

>  <organism>
Homo sapiens

>  <target_type>
SINGLE PROTEIN

$$$$

  Mrv0541 08052111042D          

 36 40  0  0  1  0            999 V2000
   -1.8212   -3.5558    0.0000 C   0  0  0  0  0  0  0  0  0  0  0  0
   -2.6462   -3.5558    0.0000 O   0  0  0  0  0  0  0  0  0  0  0  0
   -3.0587   -2.8414    0.0000 C   0  0  0  0  0  0  0  0  0  0  0  0
   -3.8837   -2.8414    0.0000 C   0  0  0  0  0  0  0  0  0  0  0  0
   -4.2962   -2.1269    0.0000 C   0  0  0  0  0  0  0  0  0  0  0  0
   -5.1212   -2.1269    0.0000 N   0  0  0  0  0  0  0  0  0  0  0  0
   -5.6061   -2.7943    0.0000 C   0  0  0  0  0  0  0  0  0  0  0  0
   -6.3907   -2.5394    0.0000 N   0  0  0  0  0  0  0  0  0  0  0  0
   -6.3907   -1.7144    0.0000 N   0  0  0  0  0  0  0  0  0  0  0  0
   -5.6061   -1.4594    0.0000 C   0  0  0  0  0  0  0  0  0  0  0  0
   -3.8837   -1.4124    0.0000 C   0  0  0  0  0  0  0  0  0  0  0  0
   -3.0587   -1.4124    0.0000 C   0  0  0  0  0  0  0  0  0  0  0  0
   -2.6462   -0.6979    0.0000 Cl  0  0  0  0  0  0  0  0  0  0  0  0
   -2.6462   -2.1269    0.0000 C   0  0  0  0  0  0  0  0  0  0  0  0
   -1.8212   -2.1269    0.0000 C   0  0  0  0  0  0  0  0  0  0  0  0
   -1.4087   -2.8414    0.0000 O   0  0  0  0  0  0  0  0  0  0  0  0
   -1.4087   -1.4124    0.0000 N   0  0  0  0  0  0  0  0  0  0  0  0
   -0.5837   -1.4124    0.0000 C   0  0  0  0  0  0  0  0  0  0  0  0
   -0.1712   -0.6979    0.0000 C   0  0  1  0  0  0  0  0  0  0  0  0
   -0.5837    0.0165    0.0000 C   0  0  0  0  0  0  0  0  0  0  0  0
   -1.4087    0.0165    0.0000 C   0  0  0  0  0  0  0  0  0  0  0  0
   -1.8212    0.7310    0.0000 C   0  0  0  0  0  0  0  0  0  0  0  0
   -1.4087    1.4455    0.0000 C   0  0  0  0  0  0  0  0  0  0  0  0
   -0.5837    1.4455    0.0000 C   0  0  0  0  0  0  0  0  0  0  0  0
   -0.1712    0.7310    0.0000 C   0  0  0  0  0  0  0  0  0  0  0  0
    0.6538   -0.6979    0.0000 C   0  0  0  0  0  0  0  0  0  0  0  0
    1.1387   -0.0305    0.0000 N   0  0  0  0  0  0  0  0  0  0  0  0
    1.9233   -0.2854    0.0000 C   0  0  0  0  0  0  0  0  0  0  0  0
    2.6378    0.1271    0.0000 C   0  0  0  0  0  0  0  0  0  0  0  0
    3.3523   -0.2854    0.0000 C   0  0  0  0  0  0  0  0  0  0  0  0
    4.0668    0.1271    0.0000 C   0  0  0  0  0  0  0  0  0  0  0  0
    3.3523   -1.1104    0.0000 C   0  0  0  0  0  0  0  0  0  0  0  0
    4.0668   -1.5229    0.0000 C   0  0  0  0  0  0  0  0  0  0  0  0
    2.6378   -1.5229    0.0000 C   0  0  0  0  0  0  0  0  0  0  0  0
    1.9233   -1.1104    0.0000 C   0  0  0  0  0  0  0  0  0  0  0  0
    1.1387   -1.3654    0.0000 N   0  0  0  0  0  0  0  0  0  0  0  0
  1  2  1  0  0  0  0
  2  3  1  0  0  0  0
  3  4  4  0  0  0  0
  4  5  4  0  0  0  0
  5  6  1  0  0  0  0
  6  7  4  0  0  0  0
  7  8  4  0  0  0  0
  8  9  4  0  0  0  0
  9 10  4  0  0  0  0
  6 10  4  0  0  0  0
  5 11  4  0  0  0  0
 11 12  4  0  0  0  0
 12 13  1  0  0  0  0
 12 14  4  0  0  0  0
  3 14  4  0  0  0  0
 14 15  1  0  0  0  0
 15 16  2  0  0  0  0
 15 17  1  0  0  0  0
 17 18  1  0  0  0  0
 18 19  1  0  0  0  0
 19 20  1  0  0  0  0
 20 21  4  0  0  0  0
 21 22  4  0  0  0  0
 22 23  4  0  0  0  0
 23 24  4  0  0  0  0
 24 25  4  0  0  0  0
 20 25  4  0  0  0  0
 19 26  1  1  0  0  0
 26 27  4  0  0  0  0
 27 28  4  0  0  0  0
 28 29  4  0  0  0  0
 29 30  4  0  0  0  0
 30 31  1  0  0  0  0
 30 32  4  0  0  0  0
 32 33  1  0  0  0  0
 32 34  4  0  0  0  0
 34 35  4  0  0  0  0
 28 35  4  0  0  0  0
 35 36  4  0  0  0  0
 26 36  4  0  0  0  0
M  STY  1   1 DAT
M  SAL   1  1  36
M  SDT   1 MRV_IMPLICIT_H                                        
M  SDD   1     0.0000    0.0000    DR    ALL  0       0  
M  SED   1 IMPL_H1
M  END
>  <CdId>
358722

>  <Mol Weight>
500.979

>  <Formula>
C27H25ClN6O2

>  <cmpd_chemblid>
CHEMBL3627868

>  <std_type>
Ki

>  <std_value>
14.8

>  <std_unit>
nM

>  <target_id>
CHEMBL2016

>  <target_name>
Coagulation factor IX

>  <organism>
Homo sapiens

>  <target_type>
SINGLE PROTEIN

$$$$

  Mrv0541 08052111042D          

 41 46  0  0  1  0            999 V2000
    4.7674    0.7556    0.0000 C   0  0  0  0  0  0  0  0  0  0  0  0
    3.9604    0.5840    0.0000 C   0  0  0  0  0  0  0  0  0  0  0  0
    3.7054   -0.2006    0.0000 C   0  0  0  0  0  0  0  0  0  0  0  0
    2.8985   -0.3721    0.0000 C   0  0  0  0  0  0  0  0  0  0  0  0
    2.3464    0.2410    0.0000 C   0  0  0  0  0  0  0  0  0  0  0  0
    2.6014    1.0256    0.0000 C   0  0  0  0  0  0  0  0  0  0  0  0
    3.4084    1.1971    0.0000 C   0  0  0  0  0  0  0  0  0  0  0  0
    1.9339    1.5105    0.0000 C   0  0  0  0  0  0  0  0  0  0  0  0
    1.9339    2.3355    0.0000 C   0  0  0  0  0  0  0  0  0  0  0  0
    2.6484    2.7480    0.0000 C   0  0  0  0  0  0  0  0  0  0  0  0
    2.6484    3.5730    0.0000 C   0  0  0  0  0  0  0  0  0  0  0  0
    3.3629    3.9855    0.0000 O   0  0  0  0  0  0  0  0  0  0  0  0
    1.9339    3.9855    0.0000 O   0  0  0  0  0  0  0  0  0  0  0  0
    1.2665    1.0256    0.0000 C   0  0  0  0  0  0  0  0  0  0  0  0
    1.5214    0.2410    0.0000 N   0  0  0  0  0  0  0  0  0  0  0  0
    0.9694   -0.3721    0.0000 C   0  0  0  0  0  0  0  0  0  0  0  0
    0.1624   -0.2006    0.0000 C   0  0  1  0  0  0  0  0  0  0  0  0
    0.1336   -1.0251    0.0000 N   0  0  0  0  0  0  0  0  0  0  0  0
    0.8333   -1.4623    0.0000 C   0  0  0  0  0  0  0  0  0  0  0  0
    1.5617   -1.0750    0.0000 O   0  0  0  0  0  0  0  0  0  0  0  0
    0.8045   -2.2868    0.0000 C   0  0  0  0  0  0  0  0  0  0  0  0
    1.5041   -2.7240    0.0000 C   0  0  0  0  0  0  0  0  0  0  0  0
    2.2326   -2.3366    0.0000 Cl  0  0  0  0  0  0  0  0  0  0  0  0
    1.4753   -3.5485    0.0000 C   0  0  0  0  0  0  0  0  0  0  0  0
    0.7469   -3.9358    0.0000 C   0  0  0  0  0  0  0  0  0  0  0  0
    0.7181   -4.7603    0.0000 N   0  0  0  0  0  0  0  0  0  0  0  0
    1.3682   -5.2682    0.0000 C   0  0  0  0  0  0  0  0  0  0  0  0
    1.0861   -6.0434    0.0000 N   0  0  0  0  0  0  0  0  0  0  0  0
    0.2616   -6.0146    0.0000 N   0  0  0  0  0  0  0  0  0  0  0  0
    0.0342   -5.2216    0.0000 C   0  0  0  0  0  0  0  0  0  0  0  0
    0.0473   -3.4986    0.0000 C   0  0  0  0  0  0  0  0  0  0  0  0
    0.0761   -2.6741    0.0000 C   0  0  0  0  0  0  0  0  0  0  0  0
   -0.6236   -2.2369    0.0000 Cl  0  0  0  0  0  0  0  0  0  0  0  0
   -0.6545   -0.3154    0.0000 C   0  0  0  0  0  0  0  0  0  0  0  0
   -0.9636   -1.0803    0.0000 C   0  0  0  0  0  0  0  0  0  0  0  0
   -1.7806   -1.1952    0.0000 C   0  0  0  0  0  0  0  0  0  0  0  0
   -2.2885   -0.5450    0.0000 C   0  0  0  0  0  0  0  0  0  0  0  0
   -1.9794    0.2199    0.0000 C   0  0  0  0  0  0  0  0  0  0  0  0
   -1.1625    0.3347    0.0000 C   0  0  0  0  0  0  0  0  0  0  0  0
   -0.0925    0.5840    0.0000 C   0  0  0  0  0  0  0  0  0  0  0  0
    0.4595    1.1971    0.0000 C   0  0  0  0  0  0  0  0  0  0  0  0
  1  2  1  0  0  0  0
  2  3  4  0  0  0  0
  3  4  4  0  0  0  0
  4  5  4  0  0  0  0
  5  6  4  0  0  0  0
  6  7  4  0  0  0  0
  2  7  4  0  0  0  0
  6  8  4  0  0  0  0
  8  9  1  0  0  0  0
  9 10  2  0  0  0  0
 10 11  1  0  0  0  0
 11 12  2  0  0  0  0
 11 13  1  0  0  0  0
  8 14  4  0  0  0  0
 14 15  4  0  0  0  0
  5 15  4  0  0  0  0
 15 16  1  0  0  0  0
 16 17  1  0  0  0  0
 17 18  1  6  0  0  0
 18 19  1  0  0  0  0
 19 20  2  0  0  0  0
 19 21  1  0  0  0  0
 21 22  4  0  0  0  0
 22 23  1  0  0  0  0
 22 24  4  0  0  0  0
 24 25  4  0  0  0  0
 25 26  1  0  0  0  0
 26 27  4  0  0  0  0
 27 28  4  0  0  0  0
 28 29  4  0  0  0  0
 29 30  4  0  0  0  0
 26 30  4  0  0  0  0
 25 31  4  0  0  0  0
 31 32  4  0  0  0  0
 21 32  4  0  0  0  0
 32 33  1  0  0  0  0
 17 34  1  1  0  0  0
 34 35  4  0  0  0  0
 35 36  4  0  0  0  0
 36 37  4  0  0  0  0
 37 38  4  0  0  0  0
 38 39  4  0  0  0  0
 34 39  4  0  0  0  0
 17 40  1  0  0  0  0
 40 41  1  0  0  0  0
 14 41  1  0  0  0  0
M  END
>  <CdId>
358723

>  <Mol Weight>
586.468

>  <Formula>
C31H25Cl2N5O3

>  <cmpd_chemblid>
CHEMBL3628964

>  <std_type>
Ki

>  <std_value>
0.8

>  <std_unit>
nM

>  <target_id>
CHEMBL2016

>  <target_name>
Coagulation factor IX

>  <organism>
Homo sapiens

>  <target_type>
SINGLE PROTEIN

$$$$

  Mrv0541 08052111042D          

 34 37  0  0  0  0            999 V2000
   -0.7145   -6.1875    0.0000 C   0  0  0  0  0  0  0  0  0  0  0  0
   -1.4289   -5.7750    0.0000 N   0  0  0  0  0  0  0  0  0  0  0  0
   -1.4289   -4.9500    0.0000 C   0  0  0  0  0  0  0  0  0  0  0  0
   -2.1434   -4.5375    0.0000 C   0  0  0  0  0  0  0  0  0  0  0  0
   -2.8579   -4.9500    0.0000 C   0  0  0  0  0  0  0  0  0  0  0  0
   -3.5724   -4.5375    0.0000 C   0  0  0  0  0  0  0  0  0  0  0  0
   -3.5724   -3.7125    0.0000 C   0  0  0  0  0  0  0  0  0  0  0  0
   -2.8579   -3.3000    0.0000 C   0  0  0  0  0  0  0  0  0  0  0  0
   -2.1434   -3.7125    0.0000 C   0  0  0  0  0  0  0  0  0  0  0  0
   -1.4289   -3.3000    0.0000 N   0  0  0  0  0  0  0  0  0  0  0  0
   -0.7145   -3.7125    0.0000 C   0  0  0  0  0  0  0  0  0  0  0  0
   -0.7145   -4.5375    0.0000 O   0  0  0  0  0  0  0  0  0  0  0  0
    0.0000   -3.3000    0.0000 O   0  0  0  0  0  0  0  0  0  0  0  0
    0.7145   -3.7125    0.0000 C   0  0  0  0  0  0  0  0  0  0  0  0
    1.4289   -3.3000    0.0000 C   0  0  0  0  0  0  0  0  0  0  0  0
    2.1434   -3.7125    0.0000 O   0  0  0  0  0  0  0  0  0  0  0  0
    2.8579   -3.3000    0.0000 C   0  0  0  0  0  0  0  0  0  0  0  0
    2.8579   -2.4750    0.0000 C   0  0  0  0  0  0  0  0  0  0  0  0
    3.5724   -2.0625    0.0000 C   0  0  0  0  0  0  0  0  0  0  0  0
    4.2868   -2.4750    0.0000 C   0  0  0  0  0  0  0  0  0  0  0  0
    4.2868   -3.3000    0.0000 C   0  0  0  0  0  0  0  0  0  0  0  0
    4.8999   -3.8520    0.0000 S   0  0  0  0  0  0  0  0  0  0  0  0
    4.5644   -4.6057    0.0000 C   0  0  0  0  0  0  0  0  0  0  0  0
    4.9769   -5.3202    0.0000 C   0  0  0  0  0  0  0  0  0  0  0  0
    5.8019   -5.3202    0.0000 N   0  0  0  0  0  0  0  0  0  0  0  0
    4.5644   -6.0346    0.0000 N   0  0  0  0  0  0  0  0  0  0  0  0
    3.7439   -4.5195    0.0000 C   0  0  0  0  0  0  0  0  0  0  0  0
    3.5724   -3.7125    0.0000 C   0  0  0  0  0  0  0  0  0  0  0  0
    1.4289   -2.4750    0.0000 C   0  0  0  0  0  0  0  0  0  0  0  0
    0.7145   -2.0625    0.0000 C   0  0  0  0  0  0  0  0  0  0  0  0
    0.7145   -1.2375    0.0000 C   0  0  0  0  0  0  0  0  0  0  0  0
    1.4289   -0.8250    0.0000 C   0  0  0  0  0  0  0  0  0  0  0  0
    2.1434   -1.2375    0.0000 C   0  0  0  0  0  0  0  0  0  0  0  0
    2.1434   -2.0625    0.0000 C   0  0  0  0  0  0  0  0  0  0  0  0
  1  2  1  0  0  0  0
  2  3  1  0  0  0  0
  3  4  1  0  0  0  0
  4  5  4  0  0  0  0
  5  6  4  0  0  0  0
  6  7  4  0  0  0  0
  7  8  4  0  0  0  0
  8  9  4  0  0  0  0
  4  9  4  0  0  0  0
  9 10  1  0  0  0  0
 10 11  1  0  0  0  0
 11 12  2  0  0  0  0
 11 13  1  0  0  0  0
 13 14  1  0  0  0  0
 14 15  1  0  0  0  0
 15 16  1  0  0  0  0
 16 17  1  0  0  0  0
 17 18  4  0  0  0  0
 18 19  4  0  0  0  0
 19 20  4  0  0  0  0
 20 21  4  0  0  0  0
 21 22  4  0  0  0  0
 22 23  4  0  0  0  0
 23 24  1  0  0  0  0
 24 25  2  0  0  0  0
 24 26  1  0  0  0  0
 23 27  4  0  0  0  0
 27 28  4  0  0  0  0
 17 28  4  0  0  0  0
 21 28  4  0  0  0  0
 15 29  1  0  0  0  0
 29 30  4  0  0  0  0
 30 31  4  0  0  0  0
 31 32  4  0  0  0  0
 32 33  4  0  0  0  0
 33 34  4  0  0  0  0
 29 34  4  0  0  0  0
M  END
>  <CdId>
358724

>  <Mol Weight>
474.575

>  <Formula>
C26H26N4O3S

>  <cmpd_chemblid>
CHEMBL598989

>  <std_type>
Ki

>  <std_value>
3.0

>  <std_unit>
nM

>  <target_id>
CHEMBL2016

>  <target_name>
Coagulation factor IX

>  <organism>
Homo sapiens

>  <target_type>
SINGLE PROTEIN

$$$$

  Mrv0541 08052111042D          

 13 14  0  0  0  0            999 V2000
   -0.5837   -1.4124    0.0000 N   0  0  0  0  0  0  0  0  0  0  0  0
   -0.1712   -0.6979    0.0000 C   0  0  0  0  0  0  0  0  0  0  0  0
   -0.5837    0.0165    0.0000 N   0  0  0  0  0  0  0  0  0  0  0  0
    0.6538   -0.6979    0.0000 C   0  0  0  0  0  0  0  0  0  0  0  0
    1.1387   -0.0305    0.0000 C   0  0  0  0  0  0  0  0  0  0  0  0
    1.9233   -0.2854    0.0000 C   0  0  0  0  0  0  0  0  0  0  0  0
    2.6378    0.1271    0.0000 C   0  0  0  0  0  0  0  0  0  0  0  0
    2.6378    0.9521    0.0000 I   0  0  0  0  0  0  0  0  0  0  0  0
    3.3523   -0.2854    0.0000 C   0  0  0  0  0  0  0  0  0  0  0  0
    3.3523   -1.1104    0.0000 C   0  0  0  0  0  0  0  0  0  0  0  0
    2.6378   -1.5229    0.0000 C   0  0  0  0  0  0  0  0  0  0  0  0
    1.9233   -1.1104    0.0000 C   0  0  0  0  0  0  0  0  0  0  0  0
    1.1387   -1.3654    0.0000 S   0  0  0  0  0  0  0  0  0  0  0  0
  1  2  2  0  0  0  0
  2  3  1  0  0  0  0
  2  4  1  0  0  0  0
  4  5  4  0  0  0  0
  5  6  4  0  0  0  0
  6  7  4  0  0  0  0
  7  8  1  0  0  0  0
  7  9  4  0  0  0  0
  9 10  4  0  0  0  0
 10 11  4  0  0  0  0
 11 12  4  0  0  0  0
  6 12  4  0  0  0  0
 12 13  4  0  0  0  0
  4 13  4  0  0  0  0
M  END
>  <CdId>
358726

>  <Mol Weight>
302.135

>  <Formula>
C9H7IN2S

>  <cmpd_chemblid>
CHEMBL60088

>  <std_type>
Ki

>  <std_value>
950.0

>  <std_unit>
nM

>  <target_id>
CHEMBL2016

>  <target_name>
Coagulation factor IX

>  <organism>
Homo sapiens

>  <target_type>
SINGLE PROTEIN

$$$$

  Mrv0541 08052111042D          

 41 45  0  0  1  0            999 V2000
    3.9849    3.9849    0.0000 C   0  0  0  0  0  0  0  0  0  0  0  0
    4.3974    3.2704    0.0000 C   0  0  2  0  0  0  0  0  0  0  0  0
    5.2224    3.2704    0.0000 C   0  0  0  0  0  0  0  0  0  0  0  0
    5.6349    2.5559    0.0000 C   0  0  0  0  0  0  0  0  0  0  0  0
    6.4599    2.5559    0.0000 C   0  0  0  0  0  0  0  0  0  0  0  0
    6.8724    1.8414    0.0000 C   0  0  2  0  0  0  0  0  0  0  0  0
    7.6974    1.8414    0.0000 N   0  0  0  0  0  0  0  0  0  0  0  0
    8.1099    2.5559    0.0000 C   0  0  0  0  0  0  0  0  0  0  0  0
    8.9349    2.5559    0.0000 C   0  0  0  0  0  0  0  0  0  0  0  0
    9.3474    1.8414    0.0000 C   0  0  0  0  0  0  0  0  0  0  0  0
   10.1724    1.8414    0.0000 C   0  0  0  0  0  0  0  0  0  0  0  0
   10.5849    2.5559    0.0000 C   0  0  0  0  0  0  0  0  0  0  0  0
   10.1724    3.2704    0.0000 C   0  0  0  0  0  0  0  0  0  0  0  0
    9.7599    3.9849    0.0000 N   0  0  0  0  0  0  0  0  0  0  0  0
   11.4099    2.5559    0.0000 C   0  0  0  0  0  0  0  0  0  0  0  0
   11.8224    1.8414    0.0000 C   0  0  0  0  0  0  0  0  0  0  0  0
   11.4099    1.1270    0.0000 C   0  0  0  0  0  0  0  0  0  0  0  0
   11.8224    0.4125    0.0000 Cl  0  0  0  0  0  0  0  0  0  0  0  0
   10.5849    1.1270    0.0000 C   0  0  0  0  0  0  0  0  0  0  0  0
   10.1724    0.4125    0.0000 F   0  0  0  0  0  0  0  0  0  0  0  0
    8.9349    1.1270    0.0000 C   0  0  0  0  0  0  0  0  0  0  0  0
    8.1099    1.1270    0.0000 C   0  0  0  0  0  0  0  0  0  0  0  0
    7.6974    0.4125    0.0000 O   0  0  0  0  0  0  0  0  0  0  0  0
    6.4599    1.1270    0.0000 C   0  0  0  0  0  0  0  0  0  0  0  0
    5.6349    1.1270    0.0000 C   0  0  0  0  0  0  0  0  0  0  0  0
    5.2224    0.4125    0.0000 C   0  0  0  0  0  0  0  0  0  0  0  0
    5.6349   -0.3020    0.0000 C   0  0  0  0  0  0  0  0  0  0  0  0
    6.4599   -0.3020    0.0000 C   0  0  0  0  0  0  0  0  0  0  0  0
    6.8724    0.4125    0.0000 N   0  0  0  0  0  0  0  0  0  0  0  0
    4.3974    0.4125    0.0000 C   0  0  0  0  0  0  0  0  0  0  0  0
    3.9849   -0.3020    0.0000 C   0  0  0  0  0  0  0  0  0  0  0  0
    3.1599   -0.3020    0.0000 C   0  0  0  0  0  0  0  0  0  0  0  0
    2.7474    0.4125    0.0000 C   0  0  0  0  0  0  0  0  0  0  0  0
    1.9224    0.4125    0.0000 C   0  0  0  0  0  0  0  0  0  0  0  0
    1.5099   -0.3020    0.0000 N   0  0  0  0  0  0  0  0  0  0  0  0
    1.5099    1.1270    0.0000 O   0  0  0  0  0  0  0  0  0  0  0  0
    3.1599    1.1270    0.0000 C   0  0  0  0  0  0  0  0  0  0  0  0
    3.9849    1.1270    0.0000 C   0  0  0  0  0  0  0  0  0  0  0  0
    4.3974    1.8414    0.0000 N   0  0  0  0  0  0  0  0  0  0  0  0
    3.9849    2.5559    0.0000 C   0  0  0  0  0  0  0  0  0  0  0  0
    3.1599    2.5559    0.0000 O   0  0  0  0  0  0  0  0  0  0  0  0
  2  1  1  6  0  0  0
  2  3  1  0  0  0  0
  3  4  1  0  0  0  0
  4  5  1  0  0  0  0
  5  6  1  0  0  0  0
  6  7  1  6  0  0  0
  7  8  1  0  0  0  0
  8  9  1  0  0  0  0
  9 10  1  0  0  0  0
 10 11  1  0  0  0  0
 11 12  4  0  0  0  0
 12 13  1  0  0  0  0
 13 14  3  0  0  0  0
 12 15  4  0  0  0  0
 15 16  4  0  0  0  0
 16 17  4  0  0  0  0
 17 18  1  0  0  0  0
 17 19  4  0  0  0  0
 11 19  4  0  0  0  0
 19 20  1  0  0  0  0
 10 21  2  0  0  0  0
 21 22  1  0  0  0  0
  7 22  1  0  0  0  0
 22 23  2  0  0  0  0
  6 24  1  0  0  0  0
 24 25  4  0  0  0  0
 25 26  4  0  0  0  0
 26 27  4  0  0  0  0
 27 28  4  0  0  0  0
 28 29  4  0  0  0  0
 24 29  4  0  0  0  0
 26 30  1  0  0  0  0
 30 31  4  0  0  0  0
 31 32  4  0  0  0  0
 32 33  4  0  0  0  0
 33 34  1  0  0  0  0
 34 35  1  0  0  0  0
 34 36  2  0  0  0  0
 33 37  4  0  0  0  0
 37 38  4  0  0  0  0
 30 38  4  0  0  0  0
 38 39  1  0  0  0  0
 39 40  1  0  0  0  0
  2 40  1  0  0  0  0
 40 41  2  0  0  0  0
M  END
>  <CdId>
358727

>  <Mol Weight>
572.029

>  <Formula>
C31H27ClFN5O3

>  <cmpd_chemblid>
CHEMBL4113610

>  <std_type>
Ki

>  <std_value>
2.02

>  <std_unit>
nM

>  <target_id>
CHEMBL2016

>  <target_name>
Coagulation factor IX

>  <organism>
Homo sapiens

>  <target_type>
SINGLE PROTEIN

$$$$

  Mrv0541 08052111042D          

 43 49  0  0  1  0            999 V2000
    4.7674    0.7556    0.0000 C   0  0  0  0  0  0  0  0  0  0  0  0
    3.9604    0.5840    0.0000 C   0  0  0  0  0  0  0  0  0  0  0  0
    3.7054   -0.2006    0.0000 C   0  0  0  0  0  0  0  0  0  0  0  0
    2.8985   -0.3721    0.0000 C   0  0  0  0  0  0  0  0  0  0  0  0
    2.3464    0.2410    0.0000 C   0  0  0  0  0  0  0  0  0  0  0  0
    2.6014    1.0256    0.0000 C   0  0  0  0  0  0  0  0  0  0  0  0
    3.4084    1.1971    0.0000 C   0  0  0  0  0  0  0  0  0  0  0  0
    1.9339    1.5105    0.0000 C   0  0  0  0  0  0  0  0  0  0  0  0
    1.9339    2.3355    0.0000 C   0  0  0  0  0  0  0  0  0  0  0  0
    1.2195    2.7480    0.0000 C   0  0  0  0  0  0  0  0  0  0  0  0
    1.2195    3.5730    0.0000 N   0  0  0  0  0  0  0  0  0  0  0  0
    1.9339    3.9855    0.0000 C   0  0  0  0  0  0  0  0  0  0  0  0
    2.6484    3.5730    0.0000 C   0  0  0  0  0  0  0  0  0  0  0  0
    3.3629    3.9855    0.0000 N   0  0  0  0  0  0  0  0  0  0  0  0
    2.6484    2.7480    0.0000 C   0  0  0  0  0  0  0  0  0  0  0  0
    1.2665    1.0256    0.0000 C   0  0  0  0  0  0  0  0  0  0  0  0
    1.5214    0.2410    0.0000 N   0  0  0  0  0  0  0  0  0  0  0  0
    0.9694   -0.3721    0.0000 C   0  0  0  0  0  0  0  0  0  0  0  0
    0.1624   -0.2006    0.0000 C   0  0  1  0  0  0  0  0  0  0  0  0
    0.1336   -1.0251    0.0000 N   0  0  0  0  0  0  0  0  0  0  0  0
    0.8333   -1.4623    0.0000 C   0  0  0  0  0  0  0  0  0  0  0  0
    1.5617   -1.0750    0.0000 O   0  0  0  0  0  0  0  0  0  0  0  0
    0.8045   -2.2868    0.0000 C   0  0  0  0  0  0  0  0  0  0  0  0
    1.5041   -2.7240    0.0000 C   0  0  0  0  0  0  0  0  0  0  0  0
    2.2326   -2.3366    0.0000 Cl  0  0  0  0  0  0  0  0  0  0  0  0
    1.4753   -3.5485    0.0000 C   0  0  0  0  0  0  0  0  0  0  0  0
    0.7469   -3.9358    0.0000 C   0  0  0  0  0  0  0  0  0  0  0  0
    0.7181   -4.7603    0.0000 N   0  0  0  0  0  0  0  0  0  0  0  0
    1.3682   -5.2682    0.0000 C   0  0  0  0  0  0  0  0  0  0  0  0
    1.0861   -6.0434    0.0000 N   0  0  0  0  0  0  0  0  0  0  0  0
    0.2616   -6.0146    0.0000 N   0  0  0  0  0  0  0  0  0  0  0  0
    0.0342   -5.2216    0.0000 C   0  0  0  0  0  0  0  0  0  0  0  0
    0.0473   -3.4986    0.0000 C   0  0  0  0  0  0  0  0  0  0  0  0
    0.0761   -2.6741    0.0000 C   0  0  0  0  0  0  0  0  0  0  0  0
   -0.6236   -2.2369    0.0000 Cl  0  0  0  0  0  0  0  0  0  0  0  0
   -0.6545   -0.3154    0.0000 C   0  0  0  0  0  0  0  0  0  0  0  0
   -0.9636   -1.0803    0.0000 C   0  0  0  0  0  0  0  0  0  0  0  0
   -1.7806   -1.1952    0.0000 C   0  0  0  0  0  0  0  0  0  0  0  0
   -2.2885   -0.5450    0.0000 C   0  0  0  0  0  0  0  0  0  0  0  0
   -1.9794    0.2199    0.0000 C   0  0  0  0  0  0  0  0  0  0  0  0
   -1.1625    0.3347    0.0000 C   0  0  0  0  0  0  0  0  0  0  0  0
   -0.0925    0.5840    0.0000 C   0  0  0  0  0  0  0  0  0  0  0  0
    0.4595    1.1971    0.0000 C   0  0  0  0  0  0  0  0  0  0  0  0
  1  2  1  0  0  0  0
  2  3  4  0  0  0  0
  3  4  4  0  0  0  0
  4  5  4  0  0  0  0
  5  6  4  0  0  0  0
  6  7  4  0  0  0  0
  2  7  4  0  0  0  0
  6  8  4  0  0  0  0
  8  9  1  0  0  0  0
  9 10  4  0  0  0  0
 10 11  4  0  0  0  0
 11 12  4  0  0  0  0
 12 13  4  0  0  0  0
 13 14  1  0  0  0  0
 13 15  4  0  0  0  0
  9 15  4  0  0  0  0
  8 16  4  0  0  0  0
 16 17  4  0  0  0  0
  5 17  4  0  0  0  0
 17 18  1  0  0  0  0
 18 19  1  0  0  0  0
 19 20  1  6  0  0  0
 20 21  1  0  0  0  0
 21 22  2  0  0  0  0
 21 23  1  0  0  0  0
 23 24  4  0  0  0  0
 24 25  1  0  0  0  0
 24 26  4  0  0  0  0
 26 27  4  0  0  0  0
 27 28  1  0  0  0  0
 28 29  4  0  0  0  0
 29 30  4  0  0  0  0
 30 31  4  0  0  0  0
 31 32  4  0  0  0  0
 28 32  4  0  0  0  0
 27 33  4  0  0  0  0
 33 34  4  0  0  0  0
 23 34  4  0  0  0  0
 34 35  1  0  0  0  0
 19 36  1  1  0  0  0
 36 37  4  0  0  0  0
 37 38  4  0  0  0  0
 38 39  4  0  0  0  0
 39 40  4  0  0  0  0
 40 41  4  0  0  0  0
 36 41  4  0  0  0  0
 19 42  1  0  0  0  0
 42 43  1  0  0  0  0
 16 43  1  0  0  0  0
M  END
>  <CdId>
358728

>  <Mol Weight>
608.52

>  <Formula>
C33H27Cl2N7O

>  <cmpd_chemblid>
CHEMBL3628966

>  <std_type>
Ki

>  <std_value>
1.6

>  <std_unit>
nM

>  <target_id>
CHEMBL2016

>  <target_name>
Coagulation factor IX

>  <organism>
Homo sapiens

>  <target_type>
SINGLE PROTEIN

$$$$

  Mrv0541 08052111042D          

 40 45  0  0  1  0            999 V2000
    4.7674    0.7556    0.0000 C   0  0  0  0  0  0  0  0  0  0  0  0
    3.9604    0.5840    0.0000 C   0  0  0  0  0  0  0  0  0  0  0  0
    3.7054   -0.2006    0.0000 C   0  0  0  0  0  0  0  0  0  0  0  0
    2.8985   -0.3721    0.0000 C   0  0  0  0  0  0  0  0  0  0  0  0
    2.3464    0.2410    0.0000 C   0  0  0  0  0  0  0  0  0  0  0  0
    2.6014    1.0256    0.0000 C   0  0  0  0  0  0  0  0  0  0  0  0
    3.4084    1.1971    0.0000 C   0  0  0  0  0  0  0  0  0  0  0  0
    1.9339    1.5105    0.0000 C   0  0  0  0  0  0  0  0  0  0  0  0
    1.9339    2.3355    0.0000 C   0  0  0  0  0  0  0  0  0  0  0  0
    1.9339    3.1605    0.0000 F   0  0  0  0  0  0  0  0  0  0  0  0
    1.1089    2.3355    0.0000 F   0  0  0  0  0  0  0  0  0  0  0  0
    2.7589    2.3355    0.0000 F   0  0  0  0  0  0  0  0  0  0  0  0
    1.2665    1.0256    0.0000 C   0  0  0  0  0  0  0  0  0  0  0  0
    1.5214    0.2410    0.0000 N   0  0  0  0  0  0  0  0  0  0  0  0
    0.9694   -0.3721    0.0000 C   0  0  0  0  0  0  0  0  0  0  0  0
    0.1624   -0.2006    0.0000 C   0  0  1  0  0  0  0  0  0  0  0  0
    0.1336   -1.0251    0.0000 N   0  0  0  0  0  0  0  0  0  0  0  0
    0.8333   -1.4623    0.0000 C   0  0  0  0  0  0  0  0  0  0  0  0
    1.5617   -1.0750    0.0000 O   0  0  0  0  0  0  0  0  0  0  0  0
    0.8045   -2.2868    0.0000 C   0  0  0  0  0  0  0  0  0  0  0  0
    1.5041   -2.7240    0.0000 C   0  0  0  0  0  0  0  0  0  0  0  0
    2.2326   -2.3366    0.0000 Cl  0  0  0  0  0  0  0  0  0  0  0  0
    1.4753   -3.5485    0.0000 C   0  0  0  0  0  0  0  0  0  0  0  0
    0.7469   -3.9358    0.0000 C   0  0  0  0  0  0  0  0  0  0  0  0
    0.7181   -4.7603    0.0000 N   0  0  0  0  0  0  0  0  0  0  0  0
    1.3682   -5.2682    0.0000 C   0  0  0  0  0  0  0  0  0  0  0  0
    1.0861   -6.0434    0.0000 N   0  0  0  0  0  0  0  0  0  0  0  0
    0.2616   -6.0146    0.0000 N   0  0  0  0  0  0  0  0  0  0  0  0
    0.0342   -5.2216    0.0000 C   0  0  0  0  0  0  0  0  0  0  0  0
    0.0473   -3.4986    0.0000 C   0  0  0  0  0  0  0  0  0  0  0  0
    0.0761   -2.6741    0.0000 C   0  0  0  0  0  0  0  0  0  0  0  0
   -0.6236   -2.2369    0.0000 Cl  0  0  0  0  0  0  0  0  0  0  0  0
   -0.6545   -0.3154    0.0000 C   0  0  0  0  0  0  0  0  0  0  0  0
   -0.9636   -1.0803    0.0000 C   0  0  0  0  0  0  0  0  0  0  0  0
   -1.7806   -1.1952    0.0000 C   0  0  0  0  0  0  0  0  0  0  0  0
   -2.2885   -0.5450    0.0000 C   0  0  0  0  0  0  0  0  0  0  0  0
   -1.9794    0.2199    0.0000 C   0  0  0  0  0  0  0  0  0  0  0  0
   -1.1625    0.3347    0.0000 C   0  0  0  0  0  0  0  0  0  0  0  0
   -0.0925    0.5840    0.0000 C   0  0  0  0  0  0  0  0  0  0  0  0
    0.4595    1.1971    0.0000 C   0  0  0  0  0  0  0  0  0  0  0  0
  1  2  1  0  0  0  0
  2  3  4  0  0  0  0
  3  4  4  0  0  0  0
  4  5  4  0  0  0  0
  5  6  4  0  0  0  0
  6  7  4  0  0  0  0
  2  7  4  0  0  0  0
  6  8  4  0  0  0  0
  8  9  1  0  0  0  0
  9 10  1  0  0  0  0
  9 11  1  0  0  0  0
  9 12  1  0  0  0  0
  8 13  4  0  0  0  0
 13 14  4  0  0  0  0
  5 14  4  0  0  0  0
 14 15  1  0  0  0  0
 15 16  1  0  0  0  0
 16 17  1  6  0  0  0
 17 18  1  0  0  0  0
 18 19  2  0  0  0  0
 18 20  1  0  0  0  0
 20 21  4  0  0  0  0
 21 22  1  0  0  0  0
 21 23  4  0  0  0  0
 23 24  4  0  0  0  0
 24 25  1  0  0  0  0
 25 26  4  0  0  0  0
 26 27  4  0  0  0  0
 27 28  4  0  0  0  0
 28 29  4  0  0  0  0
 25 29  4  0  0  0  0
 24 30  4  0  0  0  0
 30 31  4  0  0  0  0
 20 31  4  0  0  0  0
 31 32  1  0  0  0  0
 16 33  1  1  0  0  0
 33 34  4  0  0  0  0
 34 35  4  0  0  0  0
 35 36  4  0  0  0  0
 36 37  4  0  0  0  0
 37 38  4  0  0  0  0
 33 38  4  0  0  0  0
 16 39  1  0  0  0  0
 39 40  1  0  0  0  0
 13 40  1  0  0  0  0
M  END
>  <CdId>
358731

>  <Mol Weight>
584.419

>  <Formula>
C29H22Cl2F3N5O

>  <cmpd_chemblid>
CHEMBL3628959

>  <std_type>
Ki

>  <std_value>
8.4

>  <std_unit>
nM

>  <target_id>
CHEMBL2016

>  <target_name>
Coagulation factor IX

>  <organism>
Homo sapiens

>  <target_type>
SINGLE PROTEIN

$$$$

  Mrv0541 08052111042D          

 40 44  0  0  1  0            999 V2000
    3.9849    3.9849    0.0000 C   0  0  0  0  0  0  0  0  0  0  0  0
    4.3974    3.2704    0.0000 C   0  0  2  0  0  0  0  0  0  0  0  0
    5.2224    3.2704    0.0000 C   0  0  0  0  0  0  0  0  0  0  0  0
    5.6349    2.5559    0.0000 C   0  0  0  0  0  0  0  0  0  0  0  0
    6.4599    2.5559    0.0000 C   0  0  0  0  0  0  0  0  0  0  0  0
    6.8724    1.8414    0.0000 C   0  0  2  0  0  0  0  0  0  0  0  0
    7.6974    1.8414    0.0000 N   0  0  0  0  0  0  0  0  0  0  0  0
    8.1099    2.5559    0.0000 C   0  0  0  0  0  0  0  0  0  0  0  0
    8.9349    2.5559    0.0000 C   0  0  0  0  0  0  0  0  0  0  0  0
    9.3474    1.8414    0.0000 C   0  0  0  0  0  0  0  0  0  0  0  0
   10.1724    1.8414    0.0000 C   0  0  0  0  0  0  0  0  0  0  0  0
   10.5849    2.5559    0.0000 C   0  0  0  0  0  0  0  0  0  0  0  0
   10.1724    3.2704    0.0000 Br  0  0  0  0  0  0  0  0  0  0  0  0
   11.4099    2.5559    0.0000 C   0  0  0  0  0  0  0  0  0  0  0  0
   11.8224    1.8414    0.0000 C   0  0  0  0  0  0  0  0  0  0  0  0
   11.4099    1.1270    0.0000 C   0  0  0  0  0  0  0  0  0  0  0  0
   11.8224    0.4125    0.0000 Cl  0  0  0  0  0  0  0  0  0  0  0  0
   10.5849    1.1270    0.0000 C   0  0  0  0  0  0  0  0  0  0  0  0
   10.1724    0.4125    0.0000 F   0  0  0  0  0  0  0  0  0  0  0  0
    8.9349    1.1270    0.0000 C   0  0  0  0  0  0  0  0  0  0  0  0
    8.1099    1.1270    0.0000 C   0  0  0  0  0  0  0  0  0  0  0  0
    7.6974    0.4125    0.0000 O   0  0  0  0  0  0  0  0  0  0  0  0
    6.4599    1.1270    0.0000 C   0  0  0  0  0  0  0  0  0  0  0  0
    6.8724    0.4125    0.0000 C   0  0  0  0  0  0  0  0  0  0  0  0
    6.4599   -0.3020    0.0000 C   0  0  0  0  0  0  0  0  0  0  0  0
    5.6349   -0.3020    0.0000 C   0  0  0  0  0  0  0  0  0  0  0  0
    5.2224    0.4125    0.0000 C   0  0  0  0  0  0  0  0  0  0  0  0
    5.6349    1.1270    0.0000 C   0  0  0  0  0  0  0  0  0  0  0  0
    4.3974    0.4125    0.0000 C   0  0  0  0  0  0  0  0  0  0  0  0
    3.9849   -0.3020    0.0000 C   0  0  0  0  0  0  0  0  0  0  0  0
    3.1599   -0.3020    0.0000 C   0  0  0  0  0  0  0  0  0  0  0  0
    2.7474   -1.0164    0.0000 C   0  0  0  0  0  0  0  0  0  0  0  0
    3.1599   -1.7309    0.0000 O   0  0  0  0  0  0  0  0  0  0  0  0
    1.9224   -1.0164    0.0000 O   0  0  0  0  0  0  0  0  0  0  0  0
    2.7474    0.4125    0.0000 C   0  0  0  0  0  0  0  0  0  0  0  0
    3.1599    1.1270    0.0000 C   0  0  0  0  0  0  0  0  0  0  0  0
    3.9849    1.1270    0.0000 C   0  0  0  0  0  0  0  0  0  0  0  0
    4.3974    1.8414    0.0000 N   0  0  0  0  0  0  0  0  0  0  0  0
    3.9849    2.5559    0.0000 C   0  0  0  0  0  0  0  0  0  0  0  0
    3.1599    2.5559    0.0000 O   0  0  0  0  0  0  0  0  0  0  0  0
  2  1  1  6  0  0  0
  2  3  1  0  0  0  0
  3  4  1  0  0  0  0
  4  5  1  0  0  0  0
  5  6  1  0  0  0  0
  6  7  1  6  0  0  0
  7  8  1  0  0  0  0
  8  9  1  0  0  0  0
  9 10  1  0  0  0  0
 10 11  1  0  0  0  0
 11 12  4  0  0  0  0
 12 13  1  0  0  0  0
 12 14  4  0  0  0  0
 14 15  4  0  0  0  0
 15 16  4  0  0  0  0
 16 17  1  0  0  0  0
 16 18  4  0  0  0  0
 11 18  4  0  0  0  0
 18 19  1  0  0  0  0
 10 20  2  0  0  0  0
 20 21  1  0  0  0  0
  7 21  1  0  0  0  0
 21 22  2  0  0  0  0
  6 23  1  0  0  0  0
 23 24  4  0  0  0  0
 24 25  4  0  0  0  0
 25 26  4  0  0  0  0
 26 27  4  0  0  0  0
 27 28  4  0  0  0  0
 23 28  4  0  0  0  0
 27 29  1  0  0  0  0
 29 30  4  0  0  0  0
 30 31  4  0  0  0  0
 31 32  1  0  0  0  0
 32 33  2  0  0  0  0
 32 34  1  0  0  0  0
 31 35  4  0  0  0  0
 35 36  4  0  0  0  0
 36 37  4  0  0  0  0
 29 37  4  0  0  0  0
 37 38  1  0  0  0  0
 38 39  1  0  0  0  0
  2 39  1  0  0  0  0
 39 40  2  0  0  0  0
M  END
>  <CdId>
358733

>  <Mol Weight>
625.912

>  <Formula>
C31H27BrClFN2O4

>  <cmpd_chemblid>
CHEMBL4113230

>  <std_type>
Ki

>  <std_value>
0.81

>  <std_unit>
nM

>  <target_id>
CHEMBL2016

>  <target_name>
Coagulation factor IX

>  <organism>
Homo sapiens

>  <target_type>
SINGLE PROTEIN

$$$$

  Mrv0541 08052111042D          

 37 41  0  0  0  0            999 V2000
    4.2010   -5.1401    0.0000 N   0  0  0  0  0  0  0  0  0  0  0  0
    3.3760   -5.1401    0.0000 C   0  0  0  0  0  0  0  0  0  0  0  0
    2.9635   -4.4256    0.0000 N   0  0  0  0  0  0  0  0  0  0  0  0
    2.9635   -5.8546    0.0000 C   0  0  0  0  0  0  0  0  0  0  0  0
    3.3760   -6.5690    0.0000 C   0  0  0  0  0  0  0  0  0  0  0  0
    2.9635   -7.2835    0.0000 C   0  0  0  0  0  0  0  0  0  0  0  0
    2.1385   -7.2835    0.0000 C   0  0  0  0  0  0  0  0  0  0  0  0
    1.7260   -6.5690    0.0000 C   0  0  0  0  0  0  0  0  0  0  0  0
    0.9010   -6.5690    0.0000 N   0  0  0  0  0  0  0  0  0  0  0  0
    0.4161   -7.2365    0.0000 N   0  0  0  0  0  0  0  0  0  0  0  0
   -0.3686   -6.9815    0.0000 C   0  0  0  0  0  0  0  0  0  0  0  0
   -1.0360   -7.4664    0.0000 C   0  0  0  0  0  0  0  0  0  0  0  0
   -1.7034   -7.9514    0.0000 F   0  0  0  0  0  0  0  0  0  0  0  0
   -1.5209   -6.7990    0.0000 F   0  0  0  0  0  0  0  0  0  0  0  0
   -0.5511   -8.1339    0.0000 F   0  0  0  0  0  0  0  0  0  0  0  0
   -0.3686   -6.1565    0.0000 C   0  0  0  0  0  0  0  0  0  0  0  0
    0.4161   -5.9016    0.0000 C   0  0  0  0  0  0  0  0  0  0  0  0
    0.6710   -5.1170    0.0000 C   0  0  0  0  0  0  0  0  0  0  0  0
    1.4780   -4.9454    0.0000 O   0  0  0  0  0  0  0  0  0  0  0  0
    0.1190   -4.5039    0.0000 N   0  0  0  0  0  0  0  0  0  0  0  0
    0.3739   -3.7192    0.0000 C   0  0  0  0  0  0  0  0  0  0  0  0
   -0.1781   -3.1062    0.0000 C   0  0  0  0  0  0  0  0  0  0  0  0
    0.0768   -2.3215    0.0000 C   0  0  0  0  0  0  0  0  0  0  0  0
    0.8838   -2.1500    0.0000 C   0  0  0  0  0  0  0  0  0  0  0  0
    1.1387   -1.3654    0.0000 N   0  0  0  0  0  0  0  0  0  0  0  0
    0.6538   -0.6979    0.0000 C   0  0  0  0  0  0  0  0  0  0  0  0
    1.1387   -0.0305    0.0000 N   0  0  0  0  0  0  0  0  0  0  0  0
    1.9233   -0.2854    0.0000 C   0  0  0  0  0  0  0  0  0  0  0  0
    2.6378    0.1271    0.0000 C   0  0  0  0  0  0  0  0  0  0  0  0
    3.3523   -0.2854    0.0000 N   0  0  0  0  0  0  0  0  0  0  0  0
    3.3523   -1.1104    0.0000 C   0  0  0  0  0  0  0  0  0  0  0  0
    2.6378   -1.5229    0.0000 C   0  0  0  0  0  0  0  0  0  0  0  0
    1.9233   -1.1104    0.0000 C   0  0  0  0  0  0  0  0  0  0  0  0
    1.4358   -2.7631    0.0000 C   0  0  0  0  0  0  0  0  0  0  0  0
    1.1809   -3.5477    0.0000 C   0  0  0  0  0  0  0  0  0  0  0  0
    1.7329   -4.1608    0.0000 F   0  0  0  0  0  0  0  0  0  0  0  0
    2.1385   -5.8546    0.0000 C   0  0  0  0  0  0  0  0  0  0  0  0
  1  2  2  0  0  0  0
  2  3  1  0  0  0  0
  2  4  1  0  0  0  0
  4  5  4  0  0  0  0
  5  6  4  0  0  0  0
  6  7  4  0  0  0  0
  7  8  4  0  0  0  0
  8  9  1  0  0  0  0
  9 10  4  0  0  0  0
 10 11  4  0  0  0  0
 11 12  1  0  0  0  0
 12 13  1  0  0  0  0
 12 14  1  0  0  0  0
 12 15  1  0  0  0  0
 11 16  4  0  0  0  0
 16 17  4  0  0  0  0
  9 17  4  0  0  0  0
 17 18  1  0  0  0  0
 18 19  2  0  0  0  0
 18 20  1  0  0  0  0
 20 21  1  0  0  0  0
 21 22  4  0  0  0  0
 22 23  4  0  0  0  0
 23 24  4  0  0  0  0
 24 25  1  0  0  0  0
 25 26  4  0  0  0  0
 26 27  4  0  0  0  0
 27 28  4  0  0  0  0
 28 29  4  0  0  0  0
 29 30  4  0  0  0  0
 30 31  4  0  0  0  0
 31 32  4  0  0  0  0
 32 33  4  0  0  0  0
 28 33  4  0  0  0  0
 25 33  4  0  0  0  0
 24 34  4  0  0  0  0
 34 35  4  0  0  0  0
 21 35  4  0  0  0  0
 35 36  1  0  0  0  0
  8 37  4  0  0  0  0
  4 37  4  0  0  0  0
M  END
>  <CdId>
358735

>  <Mol Weight>
508.4305

>  <Formula>
C24H16F4N8O

>  <cmpd_chemblid>
CHEMBL426439

>  <std_type>
Ki

>  <std_value>
8.0

>  <std_unit>
nM

>  <target_id>
CHEMBL2016

>  <target_name>
Coagulation factor IX

>  <organism>
Homo sapiens

>  <target_type>
SINGLE PROTEIN

$$$$

  Mrv0541 08052111042D          

 49 54  0  0  1  0            999 V2000
    3.9849    3.9849    0.0000 C   0  0  0  0  0  0  0  0  0  0  0  0
    4.3974    3.2704    0.0000 C   0  0  2  0  0  0  0  0  0  0  0  0
    5.2224    3.2704    0.0000 C   0  0  0  0  0  0  0  0  0  0  0  0
    5.6349    2.5559    0.0000 C   0  0  0  0  0  0  0  0  0  0  0  0
    6.4599    2.5559    0.0000 C   0  0  0  0  0  0  0  0  0  0  0  0
    6.8724    1.8414    0.0000 C   0  0  2  0  0  0  0  0  0  0  0  0
    7.6974    1.8414    0.0000 N   0  0  0  0  0  0  0  0  0  0  0  0
    8.1099    2.5559    0.0000 C   0  0  0  0  0  0  0  0  0  0  0  0
    8.9349    2.5559    0.0000 C   0  0  0  0  0  0  0  0  0  0  0  0
    9.3474    1.8414    0.0000 C   0  0  0  0  0  0  0  0  0  0  0  0
   10.1724    1.8414    0.0000 C   0  0  0  0  0  0  0  0  0  0  0  0
   10.5849    2.5559    0.0000 C   0  0  0  0  0  0  0  0  0  0  0  0
   10.1724    3.2704    0.0000 F   0  0  0  0  0  0  0  0  0  0  0  0
   11.4099    2.5559    0.0000 C   0  0  0  0  0  0  0  0  0  0  0  0
   11.8224    1.8414    0.0000 C   0  0  0  0  0  0  0  0  0  0  0  0
   11.4099    1.1270    0.0000 C   0  0  0  0  0  0  0  0  0  0  0  0
   11.8224    0.4125    0.0000 Cl  0  0  0  0  0  0  0  0  0  0  0  0
   10.5849    1.1270    0.0000 C   0  0  0  0  0  0  0  0  0  0  0  0
   10.1724    0.4125    0.0000 F   0  0  0  0  0  0  0  0  0  0  0  0
    8.9349    1.1270    0.0000 C   0  0  0  0  0  0  0  0  0  0  0  0
    8.1099    1.1270    0.0000 C   0  0  0  0  0  0  0  0  0  0  0  0
    7.6974    0.4125    0.0000 O   0  0  0  0  0  0  0  0  0  0  0  0
    6.4599    1.1270    0.0000 C   0  0  0  0  0  0  0  0  0  0  0  0
    5.6349    1.1270    0.0000 C   0  0  0  0  0  0  0  0  0  0  0  0
    5.2224    0.4125    0.0000 C   0  0  0  0  0  0  0  0  0  0  0  0
    5.6349   -0.3020    0.0000 C   0  0  0  0  0  0  0  0  0  0  0  0
    6.4599   -0.3020    0.0000 C   0  0  0  0  0  0  0  0  0  0  0  0
    6.8724    0.4125    0.0000 N   0  0  0  0  0  0  0  0  0  0  0  0
    4.3974    0.4125    0.0000 C   0  0  0  0  0  0  0  0  0  0  0  0
    3.9849   -0.3020    0.0000 C   0  0  0  0  0  0  0  0  0  0  0  0
    3.1599   -0.3020    0.0000 C   0  0  0  0  0  0  0  0  0  0  0  0
    2.7474    0.4125    0.0000 C   0  0  0  0  0  0  0  0  0  0  0  0
    1.9224    0.4125    0.0000 N   0  0  0  0  0  0  0  0  0  0  0  0
    1.5099    1.1270    0.0000 C   0  0  0  0  0  0  0  0  0  0  0  0
    0.6849    1.1270    0.0000 O   0  0  0  0  0  0  0  0  0  0  0  0
    0.2724    1.8414    0.0000 C   0  0  1  0  0  0  0  0  0  0  0  0
   -0.5526    1.8414    0.0000 C   0  0  0  0  0  0  0  0  0  0  0  0
   -0.9651    1.1270    0.0000 O   0  0  0  0  0  0  0  0  0  0  0  0
    0.6849    2.5559    0.0000 C   0  0  2  0  0  0  0  0  0  0  0  0
    0.2724    3.2704    0.0000 O   0  0  0  0  0  0  0  0  0  0  0  0
    1.5099    2.5559    0.0000 C   0  0  1  0  0  0  0  0  0  0  0  0
    1.9224    3.2704    0.0000 O   0  0  0  0  0  0  0  0  0  0  0  0
    1.9224    1.8414    0.0000 C   0  0  2  0  0  0  0  0  0  0  0  0
    2.7474    1.8414    0.0000 O   0  0  0  0  0  0  0  0  0  0  0  0
    3.1599    1.1270    0.0000 C   0  0  0  0  0  0  0  0  0  0  0  0
    3.9849    1.1270    0.0000 C   0  0  0  0  0  0  0  0  0  0  0  0
    4.3974    1.8414    0.0000 N   0  0  0  0  0  0  0  0  0  0  0  0
    3.9849    2.5559    0.0000 C   0  0  0  0  0  0  0  0  0  0  0  0
    3.1599    2.5559    0.0000 O   0  0  0  0  0  0  0  0  0  0  0  0
  2  1  1  6  0  0  0
  2  3  1  0  0  0  0
  3  4  1  0  0  0  0
  4  5  1  0  0  0  0
  5  6  1  0  0  0  0
  6  7  1  6  0  0  0
  7  8  1  0  0  0  0
  8  9  1  0  0  0  0
  9 10  1  0  0  0  0
 10 11  1  0  0  0  0
 11 12  4  0  0  0  0
 12 13  1  0  0  0  0
 12 14  4  0  0  0  0
 14 15  4  0  0  0  0
 15 16  4  0  0  0  0
 16 17  1  0  0  0  0
 16 18  4  0  0  0  0
 11 18  4  0  0  0  0
 18 19  1  0  0  0  0
 10 20  2  0  0  0  0
 20 21  1  0  0  0  0
  7 21  1  0  0  0  0
 21 22  2  0  0  0  0
  6 23  1  0  0  0  0
 23 24  4  0  0  0  0
 24 25  4  0  0  0  0
 25 26  4  0  0  0  0
 26 27  4  0  0  0  0
 27 28  4  0  0  0  0
 23 28  4  0  0  0  0
 25 29  1  0  0  0  0
 29 30  4  0  0  0  0
 30 31  4  0  0  0  0
 31 32  4  0  0  0  0
 32 33  1  0  0  0  0
 33 34  1  0  0  0  0
 34 35  1  0  0  0  0
 35 36  1  0  0  0  0
 36 37  1  1  0  0  0
 37 38  1  0  0  0  0
 36 39  1  0  0  0  0
 39 40  1  6  0  0  0
 39 41  1  0  0  0  0
 41 42  1  1  0  0  0
 41 43  1  0  0  0  0
 34 43  1  0  0  0  0
 43 44  1  6  0  0  0
 32 45  4  0  0  0  0
 45 46  4  0  0  0  0
 29 46  4  0  0  0  0
 46 47  1  0  0  0  0
 47 48  1  0  0  0  0
  2 48  1  0  0  0  0
 48 49  2  0  0  0  0
M  END
>  <CdId>
358736

>  <Mol Weight>
699.141

>  <Formula>
C35H37ClF2N4O7

>  <cmpd_chemblid>
CHEMBL4108292

>  <std_type>
Ki

>  <std_value>
7.22

>  <std_unit>
nM

>  <target_id>
CHEMBL2016

>  <target_name>
Coagulation factor IX

>  <organism>
Homo sapiens

>  <target_type>
SINGLE PROTEIN

$$$$

  Mrv0541 08052111042D          

 41 44  0  0  1  0            999 V2000
    1.1596    6.4928    0.0000 C   0  0  0  0  0  0  0  0  0  0  0  0
    0.8240    5.7392    0.0000 C   0  0  0  0  0  0  0  0  0  0  0  0
    1.3089    5.0717    0.0000 C   0  0  0  0  0  0  0  0  0  0  0  0
    0.9734    4.3181    0.0000 C   0  0  0  0  0  0  0  0  0  0  0  0
    1.4583    3.6506    0.0000 S   0  0  0  0  0  0  0  0  0  0  0  0
    2.1258    4.1355    0.0000 O   0  0  0  0  0  0  0  0  0  0  0  0
    0.7909    3.1657    0.0000 O   0  0  0  0  0  0  0  0  0  0  0  0
    1.9432    2.9832    0.0000 N   0  0  0  0  0  0  0  0  0  0  0  0
    1.6077    2.2295    0.0000 C   0  0  1  0  0  0  0  0  0  0  0  0
    2.0202    1.5150    0.0000 C   0  0  0  0  0  0  0  0  0  0  0  0
    1.4681    0.9019    0.0000 C   0  0  0  0  0  0  0  0  0  0  0  0
    0.7145    1.2375    0.0000 N   0  0  0  0  0  0  0  0  0  0  0  0
    0.0000    0.8250    0.0000 C   0  0  2  0  0  0  0  0  0  0  0  0
    0.0000    0.0000    0.0000 C   0  0  0  0  0  0  0  0  0  0  0  0
    0.7145   -0.4125    0.0000 C   0  0  0  0  0  0  0  0  0  0  0  0
    1.4289    0.0000    0.0000 C   0  0  0  0  0  0  0  0  0  0  0  0
    2.1434   -0.4125    0.0000 C   0  0  0  0  0  0  0  0  0  0  0  0
    2.8579    0.0000    0.0000 C   0  0  0  0  0  0  0  0  0  0  0  0
    3.5724   -0.4125    0.0000 C   0  0  0  0  0  0  0  0  0  0  0  0
    3.5724   -1.2375    0.0000 N   0  0  0  0  0  0  0  0  0  0  0  0
    2.8579   -1.6500    0.0000 C   0  0  0  0  0  0  0  0  0  0  0  0
    2.8579   -2.4750    0.0000 N   0  0  0  0  0  0  0  0  0  0  0  0
    2.1434   -1.2375    0.0000 C   0  0  0  0  0  0  0  0  0  0  0  0
    1.4289   -1.6500    0.0000 C   0  0  0  0  0  0  0  0  0  0  0  0
    0.7145   -1.2375    0.0000 C   0  0  0  0  0  0  0  0  0  0  0  0
    0.0000   -1.6500    0.0000 O   0  0  0  0  0  0  0  0  0  0  0  0
   -0.7145   -1.2375    0.0000 C   0  0  0  0  0  0  0  0  0  0  0  0
   -0.3020   -0.5230    0.0000 F   0  0  0  0  0  0  0  0  0  0  0  0
   -1.1270   -1.9520    0.0000 F   0  0  0  0  0  0  0  0  0  0  0  0
   -1.4289   -0.8250    0.0000 F   0  0  0  0  0  0  0  0  0  0  0  0
   -0.7145    1.2375    0.0000 C   0  0  0  0  0  0  0  0  0  0  0  0
   -1.4289    0.8250    0.0000 O   0  0  0  0  0  0  0  0  0  0  0  0
   -0.7145    2.0625    0.0000 O   0  0  0  0  0  0  0  0  0  0  0  0
    0.8007    2.0580    0.0000 C   0  0  0  0  0  0  0  0  0  0  0  0
    0.1876    2.6100    0.0000 O   0  0  0  0  0  0  0  0  0  0  0  0
    0.1529    4.2318    0.0000 C   0  0  0  0  0  0  0  0  0  0  0  0
   -0.3320    4.8993    0.0000 N   0  0  0  0  0  0  0  0  0  0  0  0
    0.0035    5.6529    0.0000 C   0  0  0  0  0  0  0  0  0  0  0  0
   -0.4814    6.3204    0.0000 N   0  0  0  0  0  0  0  0  0  0  0  0
   -1.3019    6.2341    0.0000 C   0  0  0  0  0  0  0  0  0  0  0  0
   -0.1458    7.0741    0.0000 C   0  0  0  0  0  0  0  0  0  0  0  0
  1  2  1  0  0  0  0
  2  3  4  0  0  0  0
  3  4  4  0  0  0  0
  4  5  1  0  0  0  0
  5  6  2  0  0  0  0
  5  7  2  0  0  0  0
  5  8  1  0  0  0  0
  9  8  1  1  0  0  0
  9 10  1  0  0  0  0
 10 11  1  0  0  0  0
 11 12  1  0  0  0  0
 13 12  1  6  0  0  0
 13 14  1  0  0  0  0
 14 15  1  0  0  0  0
 15 16  4  0  0  0  0
 16 17  4  0  0  0  0
 17 18  4  0  0  0  0
 18 19  4  0  0  0  0
 19 20  4  0  0  0  0
 20 21  4  0  0  0  0
 21 22  1  0  0  0  0
 21 23  4  0  0  0  0
 17 23  4  0  0  0  0
 23 24  4  0  0  0  0
 24 25  4  0  0  0  0
 15 25  4  0  0  0  0
 25 26  1  0  0  0  0
 26 27  1  0  0  0  0
 27 28  1  0  0  0  0
 27 29  1  0  0  0  0
 27 30  1  0  0  0  0
 13 31  1  0  0  0  0
 31 32  2  0  0  0  0
 31 33  1  0  0  0  0
 12 34  1  0  0  0  0
  9 34  1  0  0  0  0
 34 35  2  0  0  0  0
  4 36  4  0  0  0  0
 36 37  4  0  0  0  0
 37 38  4  0  0  0  0
  2 38  4  0  0  0  0
 38 39  1  0  0  0  0
 39 40  1  0  0  0  0
 39 41  1  0  0  0  0
M  END
>  <CdId>
358737

>  <Mol Weight>
596.579

>  <Formula>
C25H27F3N6O6S

>  <cmpd_chemblid>
CHEMBL3902666

>  <std_type>
Ki

>  <std_value>
50.0

>  <std_unit>
nM

>  <target_id>
CHEMBL2016

>  <target_name>
Coagulation factor IX

>  <organism>
Homo sapiens

>  <target_type>
SINGLE PROTEIN

$$$$

  Mrv0541 08052111042D          

 39 44  0  0  0  0            999 V2000
   11.5058    2.6048    0.0000 N   0  0  0  0  0  0  0  0  0  0  0  0
   10.7914    3.0173    0.0000 C   0  0  0  0  0  0  0  0  0  0  0  0
   10.7914    3.8423    0.0000 N   0  0  0  0  0  0  0  0  0  0  0  0
   10.0769    2.6048    0.0000 C   0  0  0  0  0  0  0  0  0  0  0  0
   10.0769    1.7798    0.0000 C   0  0  0  0  0  0  0  0  0  0  0  0
    9.3624    1.3673    0.0000 C   0  0  0  0  0  0  0  0  0  0  0  0
    8.6480    1.7798    0.0000 C   0  0  0  0  0  0  0  0  0  0  0  0
    7.8633    1.5248    0.0000 N   0  0  0  0  0  0  0  0  0  0  0  0
    7.3784    2.1923    0.0000 C   0  0  0  0  0  0  0  0  0  0  0  0
    7.8633    2.8597    0.0000 C   0  0  0  0  0  0  0  0  0  0  0  0
    7.6084    3.6443    0.0000 C   0  0  0  0  0  0  0  0  0  0  0  0
    6.8014    3.8159    0.0000 C   0  0  0  0  0  0  0  0  0  0  0  0
    6.2494    3.2028    0.0000 C   0  0  0  0  0  0  0  0  0  0  0  0
    5.4424    3.3743    0.0000 C   0  0  0  0  0  0  0  0  0  0  0  0
    4.8904    2.7612    0.0000 C   0  0  0  0  0  0  0  0  0  0  0  0
    4.0834    2.9327    0.0000 C   0  0  0  0  0  0  0  0  0  0  0  0
    3.8285    3.7174    0.0000 C   0  0  0  0  0  0  0  0  0  0  0  0
    4.3805    4.3305    0.0000 C   0  0  0  0  0  0  0  0  0  0  0  0
    5.1875    4.1589    0.0000 C   0  0  0  0  0  0  0  0  0  0  0  0
    6.5465    4.6005    0.0000 C   0  0  0  0  0  0  0  0  0  0  0  0
    7.0985    5.2136    0.0000 O   0  0  0  0  0  0  0  0  0  0  0  0
    5.7395    4.7720    0.0000 N   0  0  0  0  0  0  0  0  0  0  0  0
    5.4846    5.5566    0.0000 C   0  0  0  0  0  0  0  0  0  0  0  0
    4.6776    5.7282    0.0000 C   0  0  0  0  0  0  0  0  0  0  0  0
    4.4227    6.5128    0.0000 C   0  0  0  0  0  0  0  0  0  0  0  0
    4.9747    7.1259    0.0000 C   0  0  0  0  0  0  0  0  0  0  0  0
    4.7198    7.9105    0.0000 N   0  0  0  0  0  0  0  0  0  0  0  0
    3.9351    8.1654    0.0000 C   0  0  0  0  0  0  0  0  0  0  0  0
    3.9351    8.9904    0.0000 N   0  0  0  0  0  0  0  0  0  0  0  0
    4.7198    9.2454    0.0000 C   0  0  0  0  0  0  0  0  0  0  0  0
    5.0553    9.9991    0.0000 C   0  0  0  0  0  0  0  0  0  0  0  0
    5.8758   10.0853    0.0000 C   0  0  0  0  0  0  0  0  0  0  0  0
    6.3607    9.4179    0.0000 C   0  0  0  0  0  0  0  0  0  0  0  0
    6.0252    8.6642    0.0000 C   0  0  0  0  0  0  0  0  0  0  0  0
    5.2047    8.5779    0.0000 C   0  0  0  0  0  0  0  0  0  0  0  0
    5.7817    6.9544    0.0000 C   0  0  0  0  0  0  0  0  0  0  0  0
    6.0366    6.1697    0.0000 C   0  0  0  0  0  0  0  0  0  0  0  0
    8.6480    2.6048    0.0000 C   0  0  0  0  0  0  0  0  0  0  0  0
    9.3624    3.0173    0.0000 C   0  0  0  0  0  0  0  0  0  0  0  0
  1  2  2  0  0  0  0
  2  3  1  0  0  0  0
  2  4  1  0  0  0  0
  4  5  4  0  0  0  0
  5  6  4  0  0  0  0
  6  7  4  0  0  0  0
  7  8  4  0  0  0  0
  8  9  4  0  0  0  0
  9 10  4  0  0  0  0
 10 11  1  0  0  0  0
 11 12  1  0  0  0  0
 12 13  1  0  0  0  0
 13 14  1  0  0  0  0
 14 15  4  0  0  0  0
 15 16  4  0  0  0  0
 16 17  4  0  0  0  0
 17 18  4  0  0  0  0
 18 19  4  0  0  0  0
 14 19  4  0  0  0  0
 12 20  1  0  0  0  0
 20 21  2  0  0  0  0
 20 22  1  0  0  0  0
 22 23  1  0  0  0  0
 23 24  4  0  0  0  0
 24 25  4  0  0  0  0
 25 26  4  0  0  0  0
 26 27  1  0  0  0  0
 27 28  4  0  0  0  0
 28 29  4  0  0  0  0
 29 30  4  0  0  0  0
 30 31  4  0  0  0  0
 31 32  4  0  0  0  0
 32 33  4  0  0  0  0
 33 34  4  0  0  0  0
 34 35  4  0  0  0  0
 30 35  4  0  0  0  0
 27 35  4  0  0  0  0
 26 36  4  0  0  0  0
 36 37  4  0  0  0  0
 23 37  4  0  0  0  0
 10 38  4  0  0  0  0
  7 38  4  0  0  0  0
 38 39  4  0  0  0  0
  4 39  4  0  0  0  0
M  STY  1   1 DAT
M  SAL   1  1   8
M  SDT   1 MRV_IMPLICIT_H                                        
M  SDD   1     0.0000    0.0000    DR    ALL  0       0  
M  SED   1 IMPL_H1
M  END
>  <CdId>
358738

>  <Mol Weight>
512.6043

>  <Formula>
C32H28N6O

>  <cmpd_chemblid>
CHEMBL363101

>  <std_type>
Ki

>  <std_value>
130.0

>  <std_unit>
nM

>  <target_id>
CHEMBL2016

>  <target_name>
Coagulation factor IX

>  <organism>
Homo sapiens

>  <target_type>
SINGLE PROTEIN

$$$$

  Mrv0541 08052111042D          

 39 43  0  0  1  0            999 V2000
    0.0000    0.8250    0.0000 C   0  0  0  0  0  0  0  0  0  0  0  0
    0.0000    0.0000    0.0000 C   0  0  0  0  0  0  0  0  0  0  0  0
    0.7145   -0.4125    0.0000 C   0  0  0  0  0  0  0  0  0  0  0  0
    1.4289    0.0000    0.0000 C   0  0  0  0  0  0  0  0  0  0  0  0
    2.1434   -0.4125    0.0000 C   0  0  0  0  0  0  0  0  0  0  0  0
    2.8579    0.0000    0.0000 C   0  0  0  0  0  0  0  0  0  0  0  0
    2.8579    0.8250    0.0000 N   0  0  0  0  0  0  0  0  0  0  0  0
    3.5724   -0.4125    0.0000 N   0  0  0  0  0  0  0  0  0  0  0  0
    3.5724   -1.2375    0.0000 C   0  0  0  0  0  0  0  0  0  0  0  0
    2.8579   -1.6500    0.0000 C   0  0  0  0  0  0  0  0  0  0  0  0
    2.1434   -1.2375    0.0000 C   0  0  0  0  0  0  0  0  0  0  0  0
    1.4289   -1.6500    0.0000 C   0  0  0  0  0  0  0  0  0  0  0  0
    0.7145   -1.2375    0.0000 C   0  0  0  0  0  0  0  0  0  0  0  0
    0.0000   -1.6500    0.0000 C   0  0  0  0  0  0  0  0  0  0  0  0
    0.0000   -2.4750    0.0000 C   0  0  2  0  0  0  0  0  0  0  0  0
   -0.7145   -2.8875    0.0000 C   0  0  0  0  0  0  0  0  0  0  0  0
   -0.7145   -3.7125    0.0000 O   0  0  0  0  0  0  0  0  0  0  0  0
   -1.4289   -2.4750    0.0000 O   0  0  0  0  0  0  0  0  0  0  0  0
    0.7145   -2.8875    0.0000 N   0  0  0  0  0  0  0  0  0  0  0  0
    1.4681   -2.5519    0.0000 C   0  0  0  0  0  0  0  0  0  0  0  0
    2.0202   -3.1650    0.0000 C   0  0  0  0  0  0  0  0  0  0  0  0
    1.6077   -3.8795    0.0000 C   0  0  2  0  0  0  0  0  0  0  0  0
    1.9432   -4.6332    0.0000 N   0  0  0  0  0  0  0  0  0  0  0  0
    1.4583   -5.3006    0.0000 S   0  0  0  0  0  0  0  0  0  0  0  0
    0.7909   -4.8157    0.0000 O   0  0  0  0  0  0  0  0  0  0  0  0
    2.1258   -5.7855    0.0000 O   0  0  0  0  0  0  0  0  0  0  0  0
    0.9734   -5.9681    0.0000 C   0  0  0  0  0  0  0  0  0  0  0  0
    1.3089   -6.7217    0.0000 C   0  0  0  0  0  0  0  0  0  0  0  0
    0.8240   -7.3892    0.0000 C   0  0  0  0  0  0  0  0  0  0  0  0
    0.0035   -7.3029    0.0000 C   0  0  0  0  0  0  0  0  0  0  0  0
   -0.4814   -7.9704    0.0000 N   0  0  0  0  0  0  0  0  0  0  0  0
   -0.2264   -8.7550    0.0000 C   0  0  0  0  0  0  0  0  0  0  0  0
   -0.8939   -9.2399    0.0000 C   0  0  0  0  0  0  0  0  0  0  0  0
   -1.5613   -8.7550    0.0000 C   0  0  0  0  0  0  0  0  0  0  0  0
   -1.3064   -7.9704    0.0000 C   0  0  0  0  0  0  0  0  0  0  0  0
   -0.3320   -6.5493    0.0000 N   0  0  0  0  0  0  0  0  0  0  0  0
    0.1529   -5.8818    0.0000 C   0  0  0  0  0  0  0  0  0  0  0  0
    0.8007   -3.7080    0.0000 C   0  0  0  0  0  0  0  0  0  0  0  0
    0.1876   -4.2600    0.0000 O   0  0  0  0  0  0  0  0  0  0  0  0
  1  2  1  0  0  0  0
  2  3  1  0  0  0  0
  3  4  4  0  0  0  0
  4  5  4  0  0  0  0
  5  6  4  0  0  0  0
  6  7  1  0  0  0  0
  6  8  4  0  0  0  0
  8  9  4  0  0  0  0
  9 10  4  0  0  0  0
 10 11  4  0  0  0  0
  5 11  4  0  0  0  0
 11 12  4  0  0  0  0
 12 13  4  0  0  0  0
  3 13  4  0  0  0  0
 13 14  1  0  0  0  0
 14 15  1  0  0  0  0
 15 16  1  0  0  0  0
 16 17  2  0  0  0  0
 16 18  1  0  0  0  0
 15 19  1  1  0  0  0
 19 20  1  0  0  0  0
 20 21  1  0  0  0  0
 21 22  1  0  0  0  0
 22 23  1  6  0  0  0
 23 24  1  0  0  0  0
 24 25  2  0  0  0  0
 24 26  2  0  0  0  0
 24 27  1  0  0  0  0
 27 28  4  0  0  0  0
 28 29  4  0  0  0  0
 29 30  4  0  0  0  0
 30 31  1  0  0  0  0
 31 32  1  0  0  0  0
 32 33  1  0  0  0  0
 33 34  1  0  0  0  0
 34 35  1  0  0  0  0
 31 35  1  0  0  0  0
 30 36  4  0  0  0  0
 36 37  4  0  0  0  0
 27 37  4  0  0  0  0
 22 38  1  0  0  0  0
 19 38  1  0  0  0  0
 38 39  2  0  0  0  0
M  END
>  <CdId>
358739

>  <Mol Weight>
552.645

>  <Formula>
C27H32N6O5S

>  <cmpd_chemblid>
CHEMBL3970140

>  <std_type>
Ki

>  <std_value>
75.0

>  <std_unit>
nM

>  <target_id>
CHEMBL2016

>  <target_name>
Coagulation factor IX

>  <organism>
Homo sapiens

>  <target_type>
SINGLE PROTEIN

$$$$

  Mrv0541 08052111042D          

 38 43  0  0  0  0            999 V2000
    4.2010   -5.1401    0.0000 N   0  0  0  0  0  0  0  0  0  0  0  0
    3.3760   -5.1401    0.0000 C   0  0  0  0  0  0  0  0  0  0  0  0
    2.9635   -4.4256    0.0000 N   0  0  0  0  0  0  0  0  0  0  0  0
    2.9635   -5.8546    0.0000 C   0  0  0  0  0  0  0  0  0  0  0  0
    3.3760   -6.5690    0.0000 C   0  0  0  0  0  0  0  0  0  0  0  0
    2.9635   -7.2835    0.0000 C   0  0  0  0  0  0  0  0  0  0  0  0
    2.1385   -7.2835    0.0000 C   0  0  0  0  0  0  0  0  0  0  0  0
    1.7260   -6.5690    0.0000 C   0  0  0  0  0  0  0  0  0  0  0  0
    0.9010   -6.5690    0.0000 N   0  0  0  0  0  0  0  0  0  0  0  0
    0.4161   -7.2365    0.0000 N   0  0  0  0  0  0  0  0  0  0  0  0
   -0.3686   -6.9815    0.0000 C   0  0  0  0  0  0  0  0  0  0  0  0
   -1.0360   -7.4664    0.0000 C   0  0  0  0  0  0  0  0  0  0  0  0
   -1.7897   -7.1309    0.0000 N   0  0  0  0  0  0  0  0  0  0  0  0
   -2.5041   -7.5434    0.0000 C   0  0  0  0  0  0  0  0  0  0  0  0
   -3.1172   -6.9914    0.0000 N   0  0  0  0  0  0  0  0  0  0  0  0
   -2.7817   -6.2377    0.0000 C   0  0  0  0  0  0  0  0  0  0  0  0
   -1.9612   -6.3239    0.0000 N   0  0  0  0  0  0  0  0  0  0  0  0
   -0.3686   -6.1565    0.0000 C   0  0  0  0  0  0  0  0  0  0  0  0
    0.4161   -5.9016    0.0000 C   0  0  0  0  0  0  0  0  0  0  0  0
    0.6710   -5.1170    0.0000 C   0  0  0  0  0  0  0  0  0  0  0  0
    1.4780   -4.9454    0.0000 O   0  0  0  0  0  0  0  0  0  0  0  0
    0.1190   -4.5039    0.0000 N   0  0  0  0  0  0  0  0  0  0  0  0
    0.3739   -3.7192    0.0000 C   0  0  0  0  0  0  0  0  0  0  0  0
   -0.1781   -3.1062    0.0000 C   0  0  0  0  0  0  0  0  0  0  0  0
    0.0768   -2.3215    0.0000 C   0  0  0  0  0  0  0  0  0  0  0  0
    0.8838   -2.1500    0.0000 C   0  0  0  0  0  0  0  0  0  0  0  0
    1.1387   -1.3654    0.0000 N   0  0  0  0  0  0  0  0  0  0  0  0
    0.6538   -0.6979    0.0000 C   0  0  0  0  0  0  0  0  0  0  0  0
    1.1387   -0.0305    0.0000 N   0  0  0  0  0  0  0  0  0  0  0  0
    1.9233   -0.2854    0.0000 C   0  0  0  0  0  0  0  0  0  0  0  0
    2.6378    0.1271    0.0000 C   0  0  0  0  0  0  0  0  0  0  0  0
    3.3523   -0.2854    0.0000 C   0  0  0  0  0  0  0  0  0  0  0  0
    3.3523   -1.1104    0.0000 C   0  0  0  0  0  0  0  0  0  0  0  0
    2.6378   -1.5229    0.0000 C   0  0  0  0  0  0  0  0  0  0  0  0
    1.9233   -1.1104    0.0000 C   0  0  0  0  0  0  0  0  0  0  0  0
    1.4358   -2.7631    0.0000 C   0  0  0  0  0  0  0  0  0  0  0  0
    1.1809   -3.5477    0.0000 C   0  0  0  0  0  0  0  0  0  0  0  0
    2.1385   -5.8546    0.0000 C   0  0  0  0  0  0  0  0  0  0  0  0
  1  2  2  0  0  0  0
  2  3  1  0  0  0  0
  2  4  1  0  0  0  0
  4  5  4  0  0  0  0
  5  6  4  0  0  0  0
  6  7  4  0  0  0  0
  7  8  4  0  0  0  0
  8  9  1  0  0  0  0
  9 10  4  0  0  0  0
 10 11  4  0  0  0  0
 11 12  1  0  0  0  0
 12 13  1  0  0  0  0
 13 14  4  0  0  0  0
 14 15  4  0  0  0  0
 15 16  4  0  0  0  0
 16 17  4  0  0  0  0
 13 17  4  0  0  0  0
 11 18  4  0  0  0  0
 18 19  4  0  0  0  0
  9 19  4  0  0  0  0
 19 20  1  0  0  0  0
 20 21  2  0  0  0  0
 20 22  1  0  0  0  0
 22 23  1  0  0  0  0
 23 24  4  0  0  0  0
 24 25  4  0  0  0  0
 25 26  4  0  0  0  0
 26 27  1  0  0  0  0
 27 28  4  0  0  0  0
 28 29  4  0  0  0  0
 29 30  4  0  0  0  0
 30 31  4  0  0  0  0
 31 32  4  0  0  0  0
 32 33  4  0  0  0  0
 33 34  4  0  0  0  0
 34 35  4  0  0  0  0
 30 35  4  0  0  0  0
 27 35  4  0  0  0  0
 26 36  4  0  0  0  0
 36 37  4  0  0  0  0
 23 37  4  0  0  0  0
  8 38  4  0  0  0  0
  4 38  4  0  0  0  0
M  END
>  <CdId>
358743

>  <Mol Weight>
502.53

>  <Formula>
C27H22N10O

>  <cmpd_chemblid>
CHEMBL185909

>  <std_type>
Ki

>  <std_value>
44.0

>  <std_unit>
nM

>  <target_id>
CHEMBL2016

>  <target_name>
Coagulation factor IX

>  <organism>
Homo sapiens

>  <target_type>
SINGLE PROTEIN

$$$$

  Mrv0541 08052111042D          

 41 45  0  0  1  0            999 V2000
    4.5375   -2.9684    0.0000 C   0  0  0  0  0  0  0  0  0  0  0  0
    4.1250   -2.2539    0.0000 O   0  0  0  0  0  0  0  0  0  0  0  0
    3.3000   -2.2539    0.0000 C   0  0  0  0  0  0  0  0  0  0  0  0
    2.8875   -2.9684    0.0000 O   0  0  0  0  0  0  0  0  0  0  0  0
    2.8875   -1.5395    0.0000 C   0  0  0  0  0  0  0  0  0  0  0  0
    3.3000   -0.8250    0.0000 C   0  0  0  0  0  0  0  0  0  0  0  0
    2.8875   -0.1105    0.0000 C   0  0  0  0  0  0  0  0  0  0  0  0
    2.0625   -0.1105    0.0000 C   0  0  0  0  0  0  0  0  0  0  0  0
    1.6500   -0.8250    0.0000 C   0  0  0  0  0  0  0  0  0  0  0  0
    2.0625   -1.5395    0.0000 C   0  0  0  0  0  0  0  0  0  0  0  0
    0.8250   -0.8250    0.0000 C   0  0  0  0  0  0  0  0  0  0  0  0
    0.4125   -1.5395    0.0000 C   0  0  0  0  0  0  0  0  0  0  0  0
   -0.4125   -1.5395    0.0000 C   0  0  0  0  0  0  0  0  0  0  0  0
   -0.8250   -0.8250    0.0000 C   0  0  0  0  0  0  0  0  0  0  0  0
   -0.4125   -0.1105    0.0000 C   0  0  0  0  0  0  0  0  0  0  0  0
    0.4125   -0.1105    0.0000 C   0  0  0  0  0  0  0  0  0  0  0  0
   -0.8250    0.6039    0.0000 C   0  0  1  0  0  0  0  0  0  0  0  0
   -1.6500    0.6039    0.0000 N   0  0  0  0  0  0  0  0  0  0  0  0
   -2.0625   -0.1105    0.0000 C   0  0  0  0  0  0  0  0  0  0  0  0
   -2.8875   -0.1105    0.0000 C   0  0  0  0  0  0  0  0  0  0  0  0
   -3.3000    0.6039    0.0000 C   0  0  0  0  0  0  0  0  0  0  0  0
   -4.1250    0.6039    0.0000 C   0  0  0  0  0  0  0  0  0  0  0  0
   -4.5375   -0.1105    0.0000 C   0  0  0  0  0  0  0  0  0  0  0  0
   -4.1250   -0.8250    0.0000 F   0  0  0  0  0  0  0  0  0  0  0  0
   -5.3625   -0.1105    0.0000 C   0  0  0  0  0  0  0  0  0  0  0  0
   -5.7750    0.6039    0.0000 C   0  0  0  0  0  0  0  0  0  0  0  0
   -5.3625    1.3184    0.0000 C   0  0  0  0  0  0  0  0  0  0  0  0
   -5.7750    2.0329    0.0000 Cl  0  0  0  0  0  0  0  0  0  0  0  0
   -4.5375    1.3184    0.0000 C   0  0  0  0  0  0  0  0  0  0  0  0
   -4.1250    2.0329    0.0000 F   0  0  0  0  0  0  0  0  0  0  0  0
   -2.8875    1.3184    0.0000 C   0  0  0  0  0  0  0  0  0  0  0  0
   -2.0625    1.3184    0.0000 C   0  0  0  0  0  0  0  0  0  0  0  0
   -1.6500    2.0329    0.0000 O   0  0  0  0  0  0  0  0  0  0  0  0
   -0.4125    1.3184    0.0000 C   0  0  0  0  0  0  0  0  0  0  0  0
    0.4125    1.3184    0.0000 C   0  0  0  0  0  0  0  0  0  0  0  0
    0.8250    2.0329    0.0000 C   0  0  0  0  0  0  0  0  0  0  0  0
    1.6500    2.0329    0.0000 C   0  0  1  0  0  0  0  0  0  0  0  0
    2.0625    2.7474    0.0000 C   0  0  0  0  0  0  0  0  0  0  0  0
    2.0625    1.3184    0.0000 C   0  0  0  0  0  0  0  0  0  0  0  0
    2.8875    1.3184    0.0000 O   0  0  0  0  0  0  0  0  0  0  0  0
    1.6500    0.6039    0.0000 N   0  0  0  0  0  0  0  0  0  0  0  0
  1  2  1  0  0  0  0
  2  3  1  0  0  0  0
  3  4  2  0  0  0  0
  3  5  1  0  0  0  0
  5  6  4  0  0  0  0
  6  7  4  0  0  0  0
  7  8  4  0  0  0  0
  8  9  4  0  0  0  0
  9 10  4  0  0  0  0
  5 10  4  0  0  0  0
  9 11  1  0  0  0  0
 11 12  4  0  0  0  0
 12 13  4  0  0  0  0
 13 14  4  0  0  0  0
 14 15  4  0  0  0  0
 15 16  4  0  0  0  0
 11 16  4  0  0  0  0
 15 17  1  0  0  0  0
 17 18  1  1  0  0  0
 18 19  1  0  0  0  0
 19 20  1  0  0  0  0
 20 21  1  0  0  0  0
 21 22  1  0  0  0  0
 22 23  4  0  0  0  0
 23 24  1  0  0  0  0
 23 25  4  0  0  0  0
 25 26  4  0  0  0  0
 26 27  4  0  0  0  0
 27 28  1  0  0  0  0
 27 29  4  0  0  0  0
 22 29  4  0  0  0  0
 29 30  1  0  0  0  0
 21 31  2  0  0  0  0
 31 32  1  0  0  0  0
 18 32  1  0  0  0  0
 32 33  2  0  0  0  0
 17 34  1  0  0  0  0
 34 35  1  0  0  0  0
 35 36  1  0  0  0  0
 36 37  1  0  0  0  0
 37 38  1  1  0  0  0
 37 39  1  0  0  0  0
 39 40  2  0  0  0  0
 39 41  1  0  0  0  0
  8 41  1  0  0  0  0
M  END
>  <CdId>
358744

>  <Mol Weight>
579.033

>  <Formula>
C32H29ClF2N2O4

>  <cmpd_chemblid>
CHEMBL4106461

>  <std_type>
Ki

>  <std_value>
511.5

>  <std_unit>
nM

>  <target_id>
CHEMBL2016

>  <target_name>
Coagulation factor IX

>  <organism>
Homo sapiens

>  <target_type>
SINGLE PROTEIN

$$$$

  Mrv0541 08052111042D          

 39 43  0  0  0  0            999 V2000
   -4.2868   -8.2500    0.0000 C   0  0  0  0  0  0  0  0  0  0  0  0
   -4.2868   -7.4250    0.0000 N   0  0  0  0  0  0  0  0  0  0  0  0
   -5.0013   -7.0125    0.0000 C   0  0  0  0  0  0  0  0  0  0  0  0
   -5.0013   -6.1875    0.0000 C   0  0  0  0  0  0  0  0  0  0  0  0
   -4.2868   -5.7750    0.0000 N   0  0  0  0  0  0  0  0  0  0  0  0
   -4.2868   -4.9500    0.0000 C   0  0  0  0  0  0  0  0  0  0  0  0
   -3.5724   -4.5375    0.0000 C   0  0  0  0  0  0  0  0  0  0  0  0
   -3.5724   -3.7125    0.0000 C   0  0  0  0  0  0  0  0  0  0  0  0
   -2.8579   -3.3000    0.0000 C   0  0  0  0  0  0  0  0  0  0  0  0
   -2.1434   -3.7125    0.0000 C   0  0  0  0  0  0  0  0  0  0  0  0
   -1.4289   -3.3000    0.0000 N   0  0  0  0  0  0  0  0  0  0  0  0
   -0.7145   -3.7125    0.0000 C   0  0  0  0  0  0  0  0  0  0  0  0
   -0.7145   -4.5375    0.0000 O   0  0  0  0  0  0  0  0  0  0  0  0
    0.0000   -3.3000    0.0000 O   0  0  0  0  0  0  0  0  0  0  0  0
    0.7145   -3.7125    0.0000 C   0  0  0  0  0  0  0  0  0  0  0  0
    1.4289   -3.3000    0.0000 C   0  0  0  0  0  0  0  0  0  0  0  0
    2.1434   -3.7125    0.0000 O   0  0  0  0  0  0  0  0  0  0  0  0
    2.8579   -3.3000    0.0000 C   0  0  0  0  0  0  0  0  0  0  0  0
    2.8579   -2.4750    0.0000 C   0  0  0  0  0  0  0  0  0  0  0  0
    3.5724   -2.0625    0.0000 C   0  0  0  0  0  0  0  0  0  0  0  0
    4.2868   -2.4750    0.0000 C   0  0  0  0  0  0  0  0  0  0  0  0
    4.2868   -3.3000    0.0000 C   0  0  0  0  0  0  0  0  0  0  0  0
    4.8999   -3.8520    0.0000 S   0  0  0  0  0  0  0  0  0  0  0  0
    4.5644   -4.6057    0.0000 C   0  0  0  0  0  0  0  0  0  0  0  0
    4.9769   -5.3202    0.0000 C   0  0  0  0  0  0  0  0  0  0  0  0
    5.8019   -5.3202    0.0000 N   0  0  0  0  0  0  0  0  0  0  0  0
    4.5644   -6.0346    0.0000 N   0  0  0  0  0  0  0  0  0  0  0  0
    3.7439   -4.5195    0.0000 C   0  0  0  0  0  0  0  0  0  0  0  0
    3.5724   -3.7125    0.0000 C   0  0  0  0  0  0  0  0  0  0  0  0
    1.4289   -2.4750    0.0000 C   0  0  0  0  0  0  0  0  0  0  0  0
    0.7145   -2.0625    0.0000 C   0  0  0  0  0  0  0  0  0  0  0  0
    0.7145   -1.2375    0.0000 C   0  0  0  0  0  0  0  0  0  0  0  0
    1.4289   -0.8250    0.0000 C   0  0  0  0  0  0  0  0  0  0  0  0
    2.1434   -1.2375    0.0000 C   0  0  0  0  0  0  0  0  0  0  0  0
    2.1434   -2.0625    0.0000 C   0  0  0  0  0  0  0  0  0  0  0  0
   -2.1434   -4.5375    0.0000 C   0  0  0  0  0  0  0  0  0  0  0  0
   -2.8579   -4.9500    0.0000 C   0  0  0  0  0  0  0  0  0  0  0  0
   -3.5724   -6.1875    0.0000 C   0  0  0  0  0  0  0  0  0  0  0  0
   -3.5724   -7.0125    0.0000 C   0  0  0  0  0  0  0  0  0  0  0  0
  1  2  1  0  0  0  0
  2  3  1  0  0  0  0
  3  4  1  0  0  0  0
  4  5  1  0  0  0  0
  5  6  1  0  0  0  0
  6  7  1  0  0  0  0
  7  8  4  0  0  0  0
  8  9  4  0  0  0  0
  9 10  4  0  0  0  0
 10 11  1  0  0  0  0
 11 12  1  0  0  0  0
 12 13  2  0  0  0  0
 12 14  1  0  0  0  0
 14 15  1  0  0  0  0
 15 16  1  0  0  0  0
 16 17  1  0  0  0  0
 17 18  1  0  0  0  0
 18 19  4  0  0  0  0
 19 20  4  0  0  0  0
 20 21  4  0  0  0  0
 21 22  4  0  0  0  0
 22 23  4  0  0  0  0
 23 24  4  0  0  0  0
 24 25  1  0  0  0  0
 25 26  2  0  0  0  0
 25 27  1  0  0  0  0
 24 28  4  0  0  0  0
 28 29  4  0  0  0  0
 18 29  4  0  0  0  0
 22 29  4  0  0  0  0
 16 30  1  0  0  0  0
 30 31  4  0  0  0  0
 31 32  4  0  0  0  0
 32 33  4  0  0  0  0
 33 34  4  0  0  0  0
 34 35  4  0  0  0  0
 30 35  4  0  0  0  0
 10 36  4  0  0  0  0
 36 37  4  0  0  0  0
  7 37  4  0  0  0  0
  5 38  1  0  0  0  0
 38 39  1  0  0  0  0
  2 39  1  0  0  0  0
M  END
>  <CdId>
358745

>  <Mol Weight>
543.68

>  <Formula>
C30H33N5O3S

>  <cmpd_chemblid>
CHEMBL597144

>  <std_type>
Ki

>  <std_value>
10.0

>  <std_unit>
nM

>  <target_id>
CHEMBL2016

>  <target_name>
Coagulation factor IX

>  <organism>
Homo sapiens

>  <target_type>
SINGLE PROTEIN

$$$$

  Mrv0541 08052111042D          

 37 41  0  0  1  0            999 V2000
    3.9849    3.9849    0.0000 C   0  0  0  0  0  0  0  0  0  0  0  0
    4.3974    3.2704    0.0000 C   0  0  2  0  0  0  0  0  0  0  0  0
    5.2224    3.2704    0.0000 C   0  0  0  0  0  0  0  0  0  0  0  0
    5.6349    2.5559    0.0000 C   0  0  0  0  0  0  0  0  0  0  0  0
    6.4599    2.5559    0.0000 C   0  0  0  0  0  0  0  0  0  0  0  0
    6.8724    1.8414    0.0000 C   0  0  2  0  0  0  0  0  0  0  0  0
    7.6974    1.8414    0.0000 N   0  0  0  0  0  0  0  0  0  0  0  0
    8.1099    2.5559    0.0000 C   0  0  0  0  0  0  0  0  0  0  0  0
    8.9349    2.5559    0.0000 C   0  0  0  0  0  0  0  0  0  0  0  0
    9.3474    1.8414    0.0000 C   0  0  0  0  0  0  0  0  0  0  0  0
   10.1724    1.8414    0.0000 C   0  0  0  0  0  0  0  0  0  0  0  0
   10.5849    2.5559    0.0000 C   0  0  0  0  0  0  0  0  0  0  0  0
   10.1724    3.2704    0.0000 Br  0  0  0  0  0  0  0  0  0  0  0  0
   11.4099    2.5559    0.0000 C   0  0  0  0  0  0  0  0  0  0  0  0
   11.8224    1.8414    0.0000 C   0  0  0  0  0  0  0  0  0  0  0  0
   11.4099    1.1270    0.0000 C   0  0  0  0  0  0  0  0  0  0  0  0
   11.8224    0.4125    0.0000 Cl  0  0  0  0  0  0  0  0  0  0  0  0
   10.5849    1.1270    0.0000 C   0  0  0  0  0  0  0  0  0  0  0  0
   10.1724    0.4125    0.0000 F   0  0  0  0  0  0  0  0  0  0  0  0
    8.9349    1.1270    0.0000 C   0  0  0  0  0  0  0  0  0  0  0  0
    8.1099    1.1270    0.0000 C   0  0  0  0  0  0  0  0  0  0  0  0
    7.6974    0.4125    0.0000 O   0  0  0  0  0  0  0  0  0  0  0  0
    6.4599    1.1270    0.0000 C   0  0  0  0  0  0  0  0  0  0  0  0
    5.6349    1.1270    0.0000 C   0  0  0  0  0  0  0  0  0  0  0  0
    5.2224    0.4125    0.0000 C   0  0  0  0  0  0  0  0  0  0  0  0
    5.6349   -0.3020    0.0000 C   0  0  0  0  0  0  0  0  0  0  0  0
    6.4599   -0.3020    0.0000 C   0  0  0  0  0  0  0  0  0  0  0  0
    6.8724    0.4125    0.0000 N   0  0  0  0  0  0  0  0  0  0  0  0
    4.3974    0.4125    0.0000 C   0  0  0  0  0  0  0  0  0  0  0  0
    3.9849   -0.3020    0.0000 C   0  0  0  0  0  0  0  0  0  0  0  0
    3.1599   -0.3020    0.0000 C   0  0  0  0  0  0  0  0  0  0  0  0
    2.7474    0.4125    0.0000 C   0  0  0  0  0  0  0  0  0  0  0  0
    3.1599    1.1270    0.0000 C   0  0  0  0  0  0  0  0  0  0  0  0
    3.9849    1.1270    0.0000 C   0  0  0  0  0  0  0  0  0  0  0  0
    4.3974    1.8414    0.0000 N   0  0  0  0  0  0  0  0  0  0  0  0
    3.9849    2.5559    0.0000 C   0  0  0  0  0  0  0  0  0  0  0  0
    3.1599    2.5559    0.0000 O   0  0  0  0  0  0  0  0  0  0  0  0
  2  1  1  6  0  0  0
  2  3  1  0  0  0  0
  3  4  1  0  0  0  0
  4  5  1  0  0  0  0
  5  6  1  0  0  0  0
  6  7  1  6  0  0  0
  7  8  1  0  0  0  0
  8  9  1  0  0  0  0
  9 10  1  0  0  0  0
 10 11  1  0  0  0  0
 11 12  4  0  0  0  0
 12 13  1  0  0  0  0
 12 14  4  0  0  0  0
 14 15  4  0  0  0  0
 15 16  4  0  0  0  0
 16 17  1  0  0  0  0
 16 18  4  0  0  0  0
 11 18  4  0  0  0  0
 18 19  1  0  0  0  0
 10 20  2  0  0  0  0
 20 21  1  0  0  0  0
  7 21  1  0  0  0  0
 21 22  2  0  0  0  0
  6 23  1  0  0  0  0
 23 24  4  0  0  0  0
 24 25  4  0  0  0  0
 25 26  4  0  0  0  0
 26 27  4  0  0  0  0
 27 28  4  0  0  0  0
 23 28  4  0  0  0  0
 25 29  1  0  0  0  0
 29 30  4  0  0  0  0
 30 31  4  0  0  0  0
 31 32  4  0  0  0  0
 32 33  4  0  0  0  0
 33 34  4  0  0  0  0
 29 34  4  0  0  0  0
 34 35  1  0  0  0  0
 35 36  1  0  0  0  0
  2 36  1  0  0  0  0
 36 37  2  0  0  0  0
M  END
>  <CdId>
358746

>  <Mol Weight>
582.891

>  <Formula>
C29H26BrClFN3O2

>  <cmpd_chemblid>
CHEMBL4109436

>  <std_type>
Ki

>  <std_value>
2.08

>  <std_unit>
nM

>  <target_id>
CHEMBL2016

>  <target_name>
Coagulation factor IX

>  <organism>
Homo sapiens

>  <target_type>
SINGLE PROTEIN

$$$$

  Mrv0541 08052111042D          

 33 36  0  0  0  0            999 V2000
   -5.3649   -1.3480    0.0000 N   0  0  0  0  0  0  0  0  0  0  0  0
   -4.9524   -2.0625    0.0000 C   0  0  0  0  0  0  0  0  0  0  0  0
   -5.3649   -2.7770    0.0000 N   0  0  0  0  0  0  0  0  0  0  0  0
   -4.1274   -2.0625    0.0000 C   0  0  0  0  0  0  0  0  0  0  0  0
   -3.6425   -1.3951    0.0000 C   0  0  0  0  0  0  0  0  0  0  0  0
   -2.8579   -1.6500    0.0000 C   0  0  0  0  0  0  0  0  0  0  0  0
   -2.1434   -1.2375    0.0000 C   0  0  0  0  0  0  0  0  0  0  0  0
   -2.1434   -0.4125    0.0000 O   0  0  0  0  0  0  0  0  0  0  0  0
   -1.4289   -0.0000    0.0000 C   0  0  0  0  0  0  0  0  0  0  0  0
   -0.7145   -0.4125    0.0000 C   0  0  0  0  0  0  0  0  0  0  0  0
    0.0000   -0.0000    0.0000 O   0  0  0  0  0  0  0  0  0  0  0  0
    0.7145   -0.4125    0.0000 C   0  0  0  0  0  0  0  0  0  0  0  0
    0.7145   -1.2375    0.0000 O   0  0  0  0  0  0  0  0  0  0  0  0
    1.4289   -0.0000    0.0000 N   0  0  0  0  0  0  0  0  0  0  0  0
    2.1434   -0.4125    0.0000 C   0  0  0  0  0  0  0  0  0  0  0  0
    2.8579   -0.0000    0.0000 C   0  0  0  0  0  0  0  0  0  0  0  0
    2.8579    0.8250    0.0000 F   0  0  0  0  0  0  0  0  0  0  0  0
    3.5724   -0.4125    0.0000 C   0  0  0  0  0  0  0  0  0  0  0  0
    3.5724   -1.2375    0.0000 C   0  0  0  0  0  0  0  0  0  0  0  0
    2.8579   -1.6500    0.0000 C   0  0  0  0  0  0  0  0  0  0  0  0
    2.1434   -1.2375    0.0000 C   0  0  0  0  0  0  0  0  0  0  0  0
    1.4289   -1.6500    0.0000 F   0  0  0  0  0  0  0  0  0  0  0  0
   -1.4289    0.8250    0.0000 C   0  0  0  0  0  0  0  0  0  0  0  0
   -2.1434    1.2375    0.0000 C   0  0  0  0  0  0  0  0  0  0  0  0
   -2.1434    2.0625    0.0000 C   0  0  0  0  0  0  0  0  0  0  0  0
   -1.4289    2.4750    0.0000 C   0  0  0  0  0  0  0  0  0  0  0  0
   -0.7145    2.0625    0.0000 C   0  0  0  0  0  0  0  0  0  0  0  0
   -0.7145    1.2375    0.0000 C   0  0  0  0  0  0  0  0  0  0  0  0
   -1.4289   -1.6500    0.0000 C   0  0  0  0  0  0  0  0  0  0  0  0
   -1.4289   -2.4750    0.0000 C   0  0  0  0  0  0  0  0  0  0  0  0
   -2.1434   -2.8875    0.0000 C   0  0  0  0  0  0  0  0  0  0  0  0
   -2.8579   -2.4750    0.0000 C   0  0  0  0  0  0  0  0  0  0  0  0
   -3.6425   -2.7299    0.0000 S   0  0  0  0  0  0  0  0  0  0  0  0
  1  2  2  0  0  0  0
  2  3  1  0  0  0  0
  2  4  1  0  0  0  0
  4  5  4  0  0  0  0
  5  6  4  0  0  0  0
  6  7  4  0  0  0  0
  7  8  1  0  0  0  0
  8  9  1  0  0  0  0
  9 10  1  0  0  0  0
 10 11  1  0  0  0  0
 11 12  1  0  0  0  0
 12 13  2  0  0  0  0
 12 14  1  0  0  0  0
 14 15  1  0  0  0  0
 15 16  4  0  0  0  0
 16 17  1  0  0  0  0
 16 18  4  0  0  0  0
 18 19  4  0  0  0  0
 19 20  4  0  0  0  0
 20 21  4  0  0  0  0
 15 21  4  0  0  0  0
 21 22  1  0  0  0  0
  9 23  1  0  0  0  0
 23 24  4  0  0  0  0
 24 25  4  0  0  0  0
 25 26  4  0  0  0  0
 26 27  4  0  0  0  0
 27 28  4  0  0  0  0
 23 28  4  0  0  0  0
  7 29  4  0  0  0  0
 29 30  4  0  0  0  0
 30 31  4  0  0  0  0
 31 32  4  0  0  0  0
  6 32  4  0  0  0  0
 32 33  4  0  0  0  0
  4 33  4  0  0  0  0
M  END
>  <CdId>
358747

>  <Mol Weight>
467.488

>  <Formula>
C24H19F2N3O3S

>  <cmpd_chemblid>
CHEMBL605564

>  <std_type>
Ki

>  <std_value>
7.0

>  <std_unit>
nM

>  <target_id>
CHEMBL2016

>  <target_name>
Coagulation factor IX

>  <organism>
Homo sapiens

>  <target_type>
SINGLE PROTEIN

$$$$

  Mrv0541 08052111042D          

 37 41  0  0  0  0            999 V2000
    4.2010   -5.1401    0.0000 N   0  0  0  0  0  0  0  0  0  0  0  0
    3.3760   -5.1401    0.0000 C   0  0  0  0  0  0  0  0  0  0  0  0
    2.9635   -4.4256    0.0000 N   0  0  0  0  0  0  0  0  0  0  0  0
    2.9635   -5.8546    0.0000 C   0  0  0  0  0  0  0  0  0  0  0  0
    3.3760   -6.5690    0.0000 C   0  0  0  0  0  0  0  0  0  0  0  0
    2.9635   -7.2835    0.0000 C   0  0  0  0  0  0  0  0  0  0  0  0
    2.1385   -7.2835    0.0000 C   0  0  0  0  0  0  0  0  0  0  0  0
    1.7260   -6.5690    0.0000 C   0  0  0  0  0  0  0  0  0  0  0  0
    0.9010   -6.5690    0.0000 N   0  0  0  0  0  0  0  0  0  0  0  0
    0.4161   -7.2365    0.0000 N   0  0  0  0  0  0  0  0  0  0  0  0
   -0.3686   -6.9815    0.0000 C   0  0  0  0  0  0  0  0  0  0  0  0
   -1.0360   -7.4664    0.0000 C   0  0  0  0  0  0  0  0  0  0  0  0
   -1.7034   -7.9514    0.0000 F   0  0  0  0  0  0  0  0  0  0  0  0
   -1.5209   -6.7990    0.0000 F   0  0  0  0  0  0  0  0  0  0  0  0
   -0.5511   -8.1339    0.0000 F   0  0  0  0  0  0  0  0  0  0  0  0
   -0.3686   -6.1565    0.0000 C   0  0  0  0  0  0  0  0  0  0  0  0
    0.4161   -5.9016    0.0000 C   0  0  0  0  0  0  0  0  0  0  0  0
    0.6710   -5.1170    0.0000 C   0  0  0  0  0  0  0  0  0  0  0  0
    1.4780   -4.9454    0.0000 O   0  0  0  0  0  0  0  0  0  0  0  0
    0.1190   -4.5039    0.0000 N   0  0  0  0  0  0  0  0  0  0  0  0
    0.3739   -3.7192    0.0000 C   0  0  0  0  0  0  0  0  0  0  0  0
   -0.1781   -3.1062    0.0000 C   0  0  0  0  0  0  0  0  0  0  0  0
    0.0768   -2.3215    0.0000 C   0  0  0  0  0  0  0  0  0  0  0  0
    0.8838   -2.1500    0.0000 C   0  0  0  0  0  0  0  0  0  0  0  0
    1.1387   -1.3654    0.0000 N   0  0  0  0  0  0  0  0  0  0  0  0
    0.6538   -0.6979    0.0000 C   0  0  0  0  0  0  0  0  0  0  0  0
   -0.1712   -0.6979    0.0000 O   0  0  0  0  0  0  0  0  0  0  0  0
    1.1387   -0.0305    0.0000 N   0  0  0  0  0  0  0  0  0  0  0  0
    1.9233   -0.2854    0.0000 C   0  0  0  0  0  0  0  0  0  0  0  0
    2.6378    0.1271    0.0000 C   0  0  0  0  0  0  0  0  0  0  0  0
    3.3523   -0.2854    0.0000 C   0  0  0  0  0  0  0  0  0  0  0  0
    3.3523   -1.1104    0.0000 C   0  0  0  0  0  0  0  0  0  0  0  0
    2.6378   -1.5229    0.0000 C   0  0  0  0  0  0  0  0  0  0  0  0
    1.9233   -1.1104    0.0000 C   0  0  0  0  0  0  0  0  0  0  0  0
    1.4358   -2.7631    0.0000 C   0  0  0  0  0  0  0  0  0  0  0  0
    1.1809   -3.5477    0.0000 C   0  0  0  0  0  0  0  0  0  0  0  0
    2.1385   -5.8546    0.0000 C   0  0  0  0  0  0  0  0  0  0  0  0
  1  2  2  0  0  0  0
  2  3  1  0  0  0  0
  2  4  1  0  0  0  0
  4  5  4  0  0  0  0
  5  6  4  0  0  0  0
  6  7  4  0  0  0  0
  7  8  4  0  0  0  0
  8  9  1  0  0  0  0
  9 10  4  0  0  0  0
 10 11  4  0  0  0  0
 11 12  1  0  0  0  0
 12 13  1  0  0  0  0
 12 14  1  0  0  0  0
 12 15  1  0  0  0  0
 11 16  4  0  0  0  0
 16 17  4  0  0  0  0
  9 17  4  0  0  0  0
 17 18  1  0  0  0  0
 18 19  2  0  0  0  0
 18 20  1  0  0  0  0
 20 21  1  0  0  0  0
 21 22  4  0  0  0  0
 22 23  4  0  0  0  0
 23 24  4  0  0  0  0
 24 25  1  0  0  0  0
 25 26  1  0  0  0  0
 26 27  2  0  0  0  0
 26 28  1  0  0  0  0
 28 29  2  0  0  0  0
 29 30  1  0  0  0  0
 30 31  2  0  0  0  0
 31 32  1  0  0  0  0
 32 33  2  0  0  0  0
 33 34  1  0  0  0  0
 29 34  1  0  0  0  0
 25 34  1  0  0  0  0
 24 35  4  0  0  0  0
 35 36  4  0  0  0  0
 21 36  4  0  0  0  0
  8 37  4  0  0  0  0
  4 37  4  0  0  0  0
M  END
>  <CdId>
358748

>  <Mol Weight>
505.4513

>  <Formula>
C25H18F3N7O2

>  <cmpd_chemblid>
CHEMBL360197

>  <std_type>
Ki

>  <std_value>
190.0

>  <std_unit>
nM

>  <target_id>
CHEMBL2016

>  <target_name>
Coagulation factor IX

>  <organism>
Homo sapiens

>  <target_type>
SINGLE PROTEIN

$$$$

  Mrv0541 08052111042D          

 34 37  0  0  0  0            999 V2000
   -5.5750   -4.4850    0.0000 C   0  0  0  0  0  0  0  0  0  0  0  0
   -4.7545   -4.5712    0.0000 O   0  0  0  0  0  0  0  0  0  0  0  0
   -4.2696   -3.9038    0.0000 C   0  0  0  0  0  0  0  0  0  0  0  0
   -3.4491   -3.9900    0.0000 C   0  0  0  0  0  0  0  0  0  0  0  0
   -2.8971   -3.3769    0.0000 C   0  0  0  0  0  0  0  0  0  0  0  0
   -2.1434   -3.7125    0.0000 C   0  0  0  0  0  0  0  0  0  0  0  0
   -1.4289   -3.3000    0.0000 N   0  0  0  0  0  0  0  0  0  0  0  0
   -0.7145   -3.7125    0.0000 C   0  0  0  0  0  0  0  0  0  0  0  0
   -0.7145   -4.5375    0.0000 O   0  0  0  0  0  0  0  0  0  0  0  0
    0.0000   -3.3000    0.0000 O   0  0  0  0  0  0  0  0  0  0  0  0
    0.7145   -3.7125    0.0000 C   0  0  0  0  0  0  0  0  0  0  0  0
    1.4289   -3.3000    0.0000 C   0  0  0  0  0  0  0  0  0  0  0  0
    2.1434   -3.7125    0.0000 O   0  0  0  0  0  0  0  0  0  0  0  0
    2.8579   -3.3000    0.0000 C   0  0  0  0  0  0  0  0  0  0  0  0
    2.8579   -2.4750    0.0000 C   0  0  0  0  0  0  0  0  0  0  0  0
    3.5724   -2.0625    0.0000 C   0  0  0  0  0  0  0  0  0  0  0  0
    4.2868   -2.4750    0.0000 C   0  0  0  0  0  0  0  0  0  0  0  0
    4.2868   -3.3000    0.0000 C   0  0  0  0  0  0  0  0  0  0  0  0
    4.8999   -3.8520    0.0000 S   0  0  0  0  0  0  0  0  0  0  0  0
    4.5644   -4.6057    0.0000 C   0  0  0  0  0  0  0  0  0  0  0  0
    4.9769   -5.3202    0.0000 C   0  0  0  0  0  0  0  0  0  0  0  0
    5.8019   -5.3202    0.0000 N   0  0  0  0  0  0  0  0  0  0  0  0
    4.5644   -6.0346    0.0000 N   0  0  0  0  0  0  0  0  0  0  0  0
    3.7439   -4.5195    0.0000 C   0  0  0  0  0  0  0  0  0  0  0  0
    3.5724   -3.7125    0.0000 C   0  0  0  0  0  0  0  0  0  0  0  0
    1.4289   -2.4750    0.0000 C   0  0  0  0  0  0  0  0  0  0  0  0
    0.7145   -2.0625    0.0000 C   0  0  0  0  0  0  0  0  0  0  0  0
    0.7145   -1.2375    0.0000 C   0  0  0  0  0  0  0  0  0  0  0  0
    1.4289   -0.8250    0.0000 C   0  0  0  0  0  0  0  0  0  0  0  0
    2.1434   -1.2375    0.0000 C   0  0  0  0  0  0  0  0  0  0  0  0
    2.1434   -2.0625    0.0000 C   0  0  0  0  0  0  0  0  0  0  0  0
   -2.2296   -4.5330    0.0000 N   0  0  0  0  0  0  0  0  0  0  0  0
   -1.6166   -5.0850    0.0000 C   0  0  0  0  0  0  0  0  0  0  0  0
   -3.0366   -4.7045    0.0000 N   0  0  0  0  0  0  0  0  0  0  0  0
  1  2  1  0  0  0  0
  2  3  1  0  0  0  0
  3  4  1  0  0  0  0
  4  5  4  0  0  0  0
  5  6  4  0  0  0  0
  6  7  1  0  0  0  0
  7  8  1  0  0  0  0
  8  9  2  0  0  0  0
  8 10  1  0  0  0  0
 10 11  1  0  0  0  0
 11 12  1  0  0  0  0
 12 13  1  0  0  0  0
 13 14  1  0  0  0  0
 14 15  4  0  0  0  0
 15 16  4  0  0  0  0
 16 17  4  0  0  0  0
 17 18  4  0  0  0  0
 18 19  4  0  0  0  0
 19 20  4  0  0  0  0
 20 21  1  0  0  0  0
 21 22  2  0  0  0  0
 21 23  1  0  0  0  0
 20 24  4  0  0  0  0
 24 25  4  0  0  0  0
 14 25  4  0  0  0  0
 18 25  4  0  0  0  0
 12 26  1  0  0  0  0
 26 27  4  0  0  0  0
 27 28  4  0  0  0  0
 28 29  4  0  0  0  0
 29 30  4  0  0  0  0
 30 31  4  0  0  0  0
 26 31  4  0  0  0  0
  6 32  4  0  0  0  0
 32 33  1  0  0  0  0
 32 34  4  0  0  0  0
  4 34  4  0  0  0  0
M  END
>  <CdId>
358749

>  <Mol Weight>
479.551

>  <Formula>
C24H25N5O4S

>  <cmpd_chemblid>
CHEMBL601870

>  <std_type>
Ki

>  <std_value>
9.0

>  <std_unit>
nM

>  <target_id>
CHEMBL2016

>  <target_name>
Coagulation factor IX

>  <organism>
Homo sapiens

>  <target_type>
SINGLE PROTEIN

$$$$

  Mrv0541 08052111042D          

 42 46  0  0  1  0            999 V2000
    8.6329   -2.2539    0.0000 C   0  0  0  0  0  0  0  0  0  0  0  0
    8.2204   -1.5395    0.0000 O   0  0  0  0  0  0  0  0  0  0  0  0
    7.3954   -1.5395    0.0000 C   0  0  0  0  0  0  0  0  0  0  0  0
    6.9829   -2.2539    0.0000 O   0  0  0  0  0  0  0  0  0  0  0  0
    6.9829   -0.8250    0.0000 N   0  0  0  0  0  0  0  0  0  0  0  0
    6.1579   -0.8250    0.0000 C   0  0  0  0  0  0  0  0  0  0  0  0
    5.7454   -0.1105    0.0000 C   0  0  0  0  0  0  0  0  0  0  0  0
    4.9204   -0.1105    0.0000 C   0  0  0  0  0  0  0  0  0  0  0  0
    4.5079   -0.8250    0.0000 C   0  0  0  0  0  0  0  0  0  0  0  0
    4.9204   -1.5395    0.0000 C   0  0  0  0  0  0  0  0  0  0  0  0
    5.7454   -1.5395    0.0000 C   0  0  0  0  0  0  0  0  0  0  0  0
    4.5079   -2.2539    0.0000 N   0  0  0  0  0  0  0  0  0  0  0  0
    4.9204   -2.9684    0.0000 C   0  0  0  0  0  0  0  0  0  0  0  0
    5.7454   -2.9684    0.0000 O   0  0  0  0  0  0  0  0  0  0  0  0
    4.5079   -3.6829    0.0000 C   0  0  2  0  0  0  0  0  0  0  0  0
    4.9204   -4.3974    0.0000 C   0  0  0  0  0  0  0  0  0  0  0  0
    3.6829   -3.6829    0.0000 C   0  0  0  0  0  0  0  0  0  0  0  0
    3.2704   -2.9684    0.0000 C   0  0  0  0  0  0  0  0  0  0  0  0
    2.4454   -2.9684    0.0000 C   0  0  0  0  0  0  0  0  0  0  0  0
    2.0329   -2.2539    0.0000 C   0  0  2  0  0  0  0  0  0  0  0  0
    1.2079   -2.2539    0.0000 N   0  0  0  0  0  0  0  0  0  0  0  0
    0.7954   -2.9684    0.0000 N   0  0  0  0  0  0  0  0  0  0  0  0
   -0.0296   -2.9684    0.0000 C   0  0  0  0  0  0  0  0  0  0  0  0
   -0.4421   -2.2539    0.0000 C   0  0  0  0  0  0  0  0  0  0  0  0
   -1.2671   -2.2539    0.0000 C   0  0  0  0  0  0  0  0  0  0  0  0
   -1.6796   -2.9684    0.0000 C   0  0  0  0  0  0  0  0  0  0  0  0
   -1.2671   -3.6829    0.0000 F   0  0  0  0  0  0  0  0  0  0  0  0
   -2.5046   -2.9684    0.0000 C   0  0  0  0  0  0  0  0  0  0  0  0
   -2.9171   -2.2539    0.0000 C   0  0  0  0  0  0  0  0  0  0  0  0
   -2.5046   -1.5395    0.0000 C   0  0  0  0  0  0  0  0  0  0  0  0
   -2.9171   -0.8250    0.0000 Cl  0  0  0  0  0  0  0  0  0  0  0  0
   -1.6796   -1.5395    0.0000 C   0  0  0  0  0  0  0  0  0  0  0  0
   -1.2671   -0.8250    0.0000 F   0  0  0  0  0  0  0  0  0  0  0  0
   -0.0296   -1.5395    0.0000 C   0  0  0  0  0  0  0  0  0  0  0  0
    0.7954   -1.5395    0.0000 C   0  0  0  0  0  0  0  0  0  0  0  0
    1.2079   -0.8250    0.0000 O   0  0  0  0  0  0  0  0  0  0  0  0
    2.4454   -1.5395    0.0000 C   0  0  0  0  0  0  0  0  0  0  0  0
    3.2704   -1.5395    0.0000 C   0  0  0  0  0  0  0  0  0  0  0  0
    3.6829   -0.8250    0.0000 C   0  0  0  0  0  0  0  0  0  0  0  0
    3.2704   -0.1105    0.0000 C   0  0  0  0  0  0  0  0  0  0  0  0
    2.4454   -0.1105    0.0000 C   0  0  0  0  0  0  0  0  0  0  0  0
    2.0329   -0.8250    0.0000 N   0  0  0  0  0  0  0  0  0  0  0  0
  1  2  1  0  0  0  0
  2  3  1  0  0  0  0
  3  4  2  0  0  0  0
  3  5  1  0  0  0  0
  5  6  1  0  0  0  0
  6  7  4  0  0  0  0
  7  8  4  0  0  0  0
  8  9  4  0  0  0  0
  9 10  4  0  0  0  0
 10 11  4  0  0  0  0
  6 11  4  0  0  0  0
 10 12  1  0  0  0  0
 12 13  1  0  0  0  0
 13 14  2  0  0  0  0
 13 15  1  0  0  0  0
 15 16  1  6  0  0  0
 15 17  1  0  0  0  0
 17 18  1  0  0  0  0
 18 19  1  0  0  0  0
 19 20  1  0  0  0  0
 20 21  1  6  0  0  0
 21 22  4  0  0  0  0
 22 23  4  0  0  0  0
 23 24  4  0  0  0  0
 24 25  1  0  0  0  0
 25 26  4  0  0  0  0
 26 27  1  0  0  0  0
 26 28  4  0  0  0  0
 28 29  4  0  0  0  0
 29 30  4  0  0  0  0
 30 31  1  0  0  0  0
 30 32  4  0  0  0  0
 25 32  4  0  0  0  0
 32 33  1  0  0  0  0
 24 34  4  0  0  0  0
 34 35  4  0  0  0  0
 21 35  4  0  0  0  0
 35 36  2  0  0  0  0
 20 37  1  0  0  0  0
 37 38  4  0  0  0  0
 38 39  4  0  0  0  0
  9 39  1  0  0  0  0
 39 40  4  0  0  0  0
 40 41  4  0  0  0  0
 41 42  4  0  0  0  0
 37 42  4  0  0  0  0
M  END
>  <CdId>
358750

>  <Mol Weight>
594.008

>  <Formula>
C30H26ClF2N5O4

>  <cmpd_chemblid>
CHEMBL4111765

>  <std_type>
Ki

>  <std_value>
6.77

>  <std_unit>
nM

>  <target_id>
CHEMBL2016

>  <target_name>
Coagulation factor IX

>  <organism>
Homo sapiens

>  <target_type>
SINGLE PROTEIN

$$$$

  Mrv0541 08052111042D          

 33 36  0  0  0  0            999 V2000
    1.4289   -2.4750    0.0000 N   0  0  0  0  0  0  0  0  0  0  0  0
    1.4289   -1.6500    0.0000 C   0  0  0  0  0  0  0  0  0  0  0  0
    0.7145   -1.2375    0.0000 N   0  0  0  0  0  0  0  0  0  0  0  0
    0.7145   -0.4125    0.0000 C   0  0  0  0  0  0  0  0  0  0  0  0
    1.4289    0.0000    0.0000 C   0  0  0  0  0  0  0  0  0  0  0  0
    2.1434   -0.4125    0.0000 C   0  0  0  0  0  0  0  0  0  0  0  0
    2.8579    0.0000    0.0000 C   0  0  0  0  0  0  0  0  0  0  0  0
    3.5724   -0.4125    0.0000 C   0  0  0  0  0  0  0  0  0  0  0  0
    4.2868   -0.0000    0.0000 N   0  0  0  0  0  0  0  0  0  0  0  0
    4.2868    0.8250    0.0000 C   0  0  0  0  0  0  0  0  0  0  0  0
    3.5724    1.2375    0.0000 O   0  0  0  0  0  0  0  0  0  0  0  0
    5.0013    1.2375    0.0000 C   0  0  0  0  0  0  0  0  0  0  0  0
    5.7158    0.8250    0.0000 O   0  0  0  0  0  0  0  0  0  0  0  0
    5.0013    2.0625    0.0000 C   0  0  0  0  0  0  0  0  0  0  0  0
    4.2868    2.4750    0.0000 C   0  0  0  0  0  0  0  0  0  0  0  0
    4.2868    3.3000    0.0000 C   0  0  0  0  0  0  0  0  0  0  0  0
    5.0013    3.7125    0.0000 C   0  0  0  0  0  0  0  0  0  0  0  0
    5.7158    3.3000    0.0000 C   0  0  0  0  0  0  0  0  0  0  0  0
    6.4302    3.7125    0.0000 C   0  0  0  0  0  0  0  0  0  0  0  0
    6.4302    4.5375    0.0000 C   0  0  0  0  0  0  0  0  0  0  0  0
    7.1447    4.9500    0.0000 C   0  0  0  0  0  0  0  0  0  0  0  0
    7.8592    4.5375    0.0000 C   0  0  0  0  0  0  0  0  0  0  0  0
    8.5737    4.9500    0.0000 O   0  0  0  0  0  0  0  0  0  0  0  0
    8.5737    5.7750    0.0000 C   0  0  0  0  0  0  0  0  0  0  0  0
    8.5737    6.6000    0.0000 F   0  0  0  0  0  0  0  0  0  0  0  0
    9.3987    5.7750    0.0000 F   0  0  0  0  0  0  0  0  0  0  0  0
    7.7487    5.7750    0.0000 F   0  0  0  0  0  0  0  0  0  0  0  0
    7.8592    3.7125    0.0000 C   0  0  0  0  0  0  0  0  0  0  0  0
    7.1447    3.3000    0.0000 C   0  0  0  0  0  0  0  0  0  0  0  0
    5.7158    2.4750    0.0000 C   0  0  0  0  0  0  0  0  0  0  0  0
    3.5724   -1.2375    0.0000 C   0  0  0  0  0  0  0  0  0  0  0  0
    2.8579   -1.6500    0.0000 C   0  0  0  0  0  0  0  0  0  0  0  0
    2.1434   -1.2375    0.0000 C   0  0  0  0  0  0  0  0  0  0  0  0
  1  2  1  0  0  0  0
  2  3  4  0  0  0  0
  3  4  4  0  0  0  0
  4  5  4  0  0  0  0
  5  6  4  0  0  0  0
  6  7  4  0  0  0  0
  7  8  4  0  0  0  0
  8  9  1  0  0  0  0
  9 10  1  0  0  0  0
 10 11  2  0  0  0  0
 10 12  1  0  0  0  0
 12 13  1  0  0  0  0
 12 14  1  0  0  0  0
 14 15  4  0  0  0  0
 15 16  4  0  0  0  0
 16 17  4  0  0  0  0
 17 18  4  0  0  0  0
 18 19  1  0  0  0  0
 19 20  4  0  0  0  0
 20 21  4  0  0  0  0
 21 22  4  0  0  0  0
 22 23  1  0  0  0  0
 23 24  1  0  0  0  0
 24 25  1  0  0  0  0
 24 26  1  0  0  0  0
 24 27  1  0  0  0  0
 22 28  4  0  0  0  0
 28 29  4  0  0  0  0
 19 29  4  0  0  0  0
 18 30  4  0  0  0  0
 14 30  4  0  0  0  0
  8 31  4  0  0  0  0
 31 32  4  0  0  0  0
 32 33  4  0  0  0  0
  2 33  4  0  0  0  0
  6 33  4  0  0  0  0
M  END
>  <CdId>
358752

>  <Mol Weight>
453.4132

>  <Formula>
C24H18F3N3O3

>  <cmpd_chemblid>
CHEMBL3969228

>  <std_type>
Ki

>  <std_value>
380.0

>  <std_unit>
nM

>  <target_id>
CHEMBL2016

>  <target_name>
Coagulation factor IX

>  <organism>
Homo sapiens

>  <target_type>
SINGLE PROTEIN

$$$$

  Mrv0541 08052111042D          

 34 38  0  0  1  0            999 V2000
    0.8838   -2.1500    0.0000 N   0  0  0  0  0  0  0  0  0  0  0  0
    1.1387   -1.3654    0.0000 C   0  0  0  0  0  0  0  0  0  0  0  0
    0.6538   -0.6979    0.0000 N   0  0  0  0  0  0  0  0  0  0  0  0
    1.1387   -0.0305    0.0000 O   0  0  0  0  0  0  0  0  0  0  0  0
    1.9233   -0.2854    0.0000 C   0  0  0  0  0  0  0  0  0  0  0  0
    2.6378    0.1271    0.0000 C   0  0  0  0  0  0  0  0  0  0  0  0
    2.6378    0.9521    0.0000 N   0  0  0  0  0  0  0  0  0  0  0  0
    1.9704    1.4370    0.0000 C   0  0  0  0  0  0  0  0  0  0  0  0
    2.2253    2.2216    0.0000 C   0  0  0  0  0  0  0  0  0  0  0  0
    3.0503    2.2216    0.0000 C   0  0  1  0  0  0  0  0  0  0  0  0
    3.5352    2.8890    0.0000 N   0  0  0  0  0  0  0  0  0  0  0  0
    3.1997    3.6427    0.0000 C   0  0  0  0  0  0  0  0  0  0  0  0
    2.3792    3.7290    0.0000 O   0  0  0  0  0  0  0  0  0  0  0  0
    3.6846    4.3102    0.0000 C   0  0  0  0  0  0  0  0  0  0  0  0
    3.3490    5.0638    0.0000 C   0  0  0  0  0  0  0  0  0  0  0  0
    3.8340    5.7313    0.0000 C   0  0  0  0  0  0  0  0  0  0  0  0
    4.6544    5.6450    0.0000 C   0  0  0  0  0  0  0  0  0  0  0  0
    5.1394    6.3125    0.0000 N   0  0  0  0  0  0  0  0  0  0  0  0
    4.8844    7.0971    0.0000 C   0  0  0  0  0  0  0  0  0  0  0  0
    5.5519    7.5820    0.0000 N   0  0  0  0  0  0  0  0  0  0  0  0
    6.2193    7.0971    0.0000 C   0  0  0  0  0  0  0  0  0  0  0  0
    7.0039    7.3520    0.0000 C   0  0  0  0  0  0  0  0  0  0  0  0
    7.6170    6.8000    0.0000 C   0  0  0  0  0  0  0  0  0  0  0  0
    8.4016    7.0549    0.0000 O   0  0  0  0  0  0  0  0  0  0  0  0
    5.9644    6.3125    0.0000 C   0  0  0  0  0  0  0  0  0  0  0  0
    4.9900    4.8914    0.0000 C   0  0  0  0  0  0  0  0  0  0  0  0
    4.5051    4.2239    0.0000 C   0  0  0  0  0  0  0  0  0  0  0  0
    4.8406    3.4702    0.0000 Cl  0  0  0  0  0  0  0  0  0  0  0  0
    3.3053    1.4370    0.0000 C   0  0  0  0  0  0  0  0  0  0  0  0
    3.3523   -0.2854    0.0000 N   0  0  0  0  0  0  0  0  0  0  0  0
    3.3523   -1.1104    0.0000 C   0  0  0  0  0  0  0  0  0  0  0  0
    2.6378   -1.5229    0.0000 C   0  0  0  0  0  0  0  0  0  0  0  0
    2.6378   -2.3479    0.0000 Cl  0  0  0  0  0  0  0  0  0  0  0  0
    1.9233   -1.1104    0.0000 C   0  0  0  0  0  0  0  0  0  0  0  0
  1  2  1  0  0  0  0
  2  3  4  0  0  0  0
  3  4  4  0  0  0  0
  4  5  4  0  0  0  0
  5  6  4  0  0  0  0
  6  7  1  0  0  0  0
  7  8  1  0  0  0  0
  8  9  1  0  0  0  0
  9 10  1  0  0  0  0
 10 11  1  1  0  0  0
 11 12  1  0  0  0  0
 12 13  2  0  0  0  0
 12 14  1  0  0  0  0
 14 15  4  0  0  0  0
 15 16  4  0  0  0  0
 16 17  4  0  0  0  0
 17 18  1  0  0  0  0
 18 19  4  0  0  0  0
 19 20  4  0  0  0  0
 20 21  4  0  0  0  0
 21 22  1  0  0  0  0
 22 23  1  0  0  0  0
 23 24  1  0  0  0  0
 21 25  4  0  0  0  0
 18 25  4  0  0  0  0
 17 26  4  0  0  0  0
 26 27  4  0  0  0  0
 14 27  4  0  0  0  0
 27 28  1  0  0  0  0
 10 29  1  0  0  0  0
  7 29  1  0  0  0  0
  6 30  4  0  0  0  0
 30 31  4  0  0  0  0
 31 32  4  0  0  0  0
 32 33  1  0  0  0  0
 32 34  4  0  0  0  0
  2 34  4  0  0  0  0
  5 34  4  0  0  0  0
M  END
>  <CdId>
358753

>  <Mol Weight>
502.353

>  <Formula>
C22H21Cl2N7O3

>  <cmpd_chemblid>
CHEMBL4092982

>  <std_type>
Ki

>  <std_value>
6.5

>  <std_unit>
nM

>  <target_id>
CHEMBL2016

>  <target_name>
Coagulation factor IX

>  <organism>
Homo sapiens

>  <target_type>
SINGLE PROTEIN

$$$$

  Mrv0541 08052111042D          

 30 34  0  0  0  0            999 V2000
    0.8838   -2.1500    0.0000 N   0  0  0  0  0  0  0  0  0  0  0  0
    1.1387   -1.3654    0.0000 C   0  0  0  0  0  0  0  0  0  0  0  0
    0.6538   -0.6979    0.0000 N   0  0  0  0  0  0  0  0  0  0  0  0
    1.1387   -0.0305    0.0000 O   0  0  0  0  0  0  0  0  0  0  0  0
    1.9233   -0.2854    0.0000 C   0  0  0  0  0  0  0  0  0  0  0  0
    2.6378    0.1271    0.0000 C   0  0  0  0  0  0  0  0  0  0  0  0
    2.6378    0.9521    0.0000 N   0  0  0  0  0  0  0  0  0  0  0  0
    1.9704    1.4370    0.0000 C   0  0  0  0  0  0  0  0  0  0  0  0
    2.2253    2.2216    0.0000 C   0  0  0  0  0  0  0  0  0  0  0  0
    3.0503    2.2216    0.0000 C   0  0  0  0  0  0  0  0  0  0  0  0
    3.5352    2.8890    0.0000 N   0  0  0  0  0  0  0  0  0  0  0  0
    3.1997    3.6427    0.0000 C   0  0  0  0  0  0  0  0  0  0  0  0
    2.3792    3.7290    0.0000 O   0  0  0  0  0  0  0  0  0  0  0  0
    3.6846    4.3102    0.0000 C   0  0  0  0  0  0  0  0  0  0  0  0
    3.3490    5.0638    0.0000 C   0  0  0  0  0  0  0  0  0  0  0  0
    3.8340    5.7313    0.0000 C   0  0  0  0  0  0  0  0  0  0  0  0
    4.6544    5.6450    0.0000 C   0  0  0  0  0  0  0  0  0  0  0  0
    5.1394    6.3125    0.0000 N   0  0  0  0  0  0  0  0  0  0  0  0
    4.8844    7.0971    0.0000 C   0  0  0  0  0  0  0  0  0  0  0  0
    5.5519    7.5820    0.0000 N   0  0  0  0  0  0  0  0  0  0  0  0
    6.2193    7.0971    0.0000 N   0  0  0  0  0  0  0  0  0  0  0  0
    5.9644    6.3125    0.0000 C   0  0  0  0  0  0  0  0  0  0  0  0
    4.9900    4.8914    0.0000 C   0  0  0  0  0  0  0  0  0  0  0  0
    4.5051    4.2239    0.0000 C   0  0  0  0  0  0  0  0  0  0  0  0
    4.8406    3.4702    0.0000 Cl  0  0  0  0  0  0  0  0  0  0  0  0
    3.3053    1.4370    0.0000 C   0  0  0  0  0  0  0  0  0  0  0  0
    3.3523   -0.2854    0.0000 N   0  0  0  0  0  0  0  0  0  0  0  0
    3.3523   -1.1104    0.0000 C   0  0  0  0  0  0  0  0  0  0  0  0
    2.6378   -1.5229    0.0000 C   0  0  0  0  0  0  0  0  0  0  0  0
    1.9233   -1.1104    0.0000 C   0  0  0  0  0  0  0  0  0  0  0  0
  1  2  1  0  0  0  0
  2  3  4  0  0  0  0
  3  4  4  0  0  0  0
  4  5  4  0  0  0  0
  5  6  4  0  0  0  0
  6  7  1  0  0  0  0
  7  8  1  0  0  0  0
  8  9  1  0  0  0  0
  9 10  1  0  0  0  0
 10 11  1  0  0  0  0
 11 12  1  0  0  0  0
 12 13  2  0  0  0  0
 12 14  1  0  0  0  0
 14 15  4  0  0  0  0
 15 16  4  0  0  0  0
 16 17  4  0  0  0  0
 17 18  1  0  0  0  0
 18 19  4  0  0  0  0
 19 20  4  0  0  0  0
 20 21  4  0  0  0  0
 21 22  4  0  0  0  0
 18 22  4  0  0  0  0
 17 23  4  0  0  0  0
 23 24  4  0  0  0  0
 14 24  4  0  0  0  0
 24 25  1  0  0  0  0
 10 26  1  0  0  0  0
  7 26  1  0  0  0  0
  6 27  4  0  0  0  0
 27 28  4  0  0  0  0
 28 29  4  0  0  0  0
 29 30  4  0  0  0  0
  2 30  4  0  0  0  0
  5 30  4  0  0  0  0
M  END
>  <CdId>
358754

>  <Mol Weight>
424.844

>  <Formula>
C19H17ClN8O2

>  <cmpd_chemblid>
CHEMBL4060976

>  <std_type>
Ki

>  <std_value>
44.5

>  <std_unit>
nM

>  <target_id>
CHEMBL2016

>  <target_name>
Coagulation factor IX

>  <organism>
Homo sapiens

>  <target_type>
SINGLE PROTEIN

$$$$

  Mrv0541 08052111042D          

 39 43  0  0  1  0            999 V2000
    3.9849    3.9849    0.0000 C   0  0  0  0  0  0  0  0  0  0  0  0
    4.3974    3.2704    0.0000 C   0  0  2  0  0  0  0  0  0  0  0  0
    5.2224    3.2704    0.0000 C   0  0  0  0  0  0  0  0  0  0  0  0
    5.6349    2.5559    0.0000 C   0  0  0  0  0  0  0  0  0  0  0  0
    6.4599    2.5559    0.0000 C   0  0  0  0  0  0  0  0  0  0  0  0
    6.8724    1.8414    0.0000 C   0  0  2  0  0  0  0  0  0  0  0  0
    7.6974    1.8414    0.0000 N   0  0  0  0  0  0  0  0  0  0  0  0
    8.1099    2.5559    0.0000 C   0  0  0  0  0  0  0  0  0  0  0  0
    8.9349    2.5559    0.0000 C   0  0  0  0  0  0  0  0  0  0  0  0
    9.3474    1.8414    0.0000 C   0  0  0  0  0  0  0  0  0  0  0  0
   10.1724    1.8414    0.0000 C   0  0  0  0  0  0  0  0  0  0  0  0
   10.5849    2.5559    0.0000 C   0  0  0  0  0  0  0  0  0  0  0  0
   10.1724    3.2704    0.0000 F   0  0  0  0  0  0  0  0  0  0  0  0
   11.4099    2.5559    0.0000 C   0  0  0  0  0  0  0  0  0  0  0  0
   11.8224    1.8414    0.0000 C   0  0  0  0  0  0  0  0  0  0  0  0
   11.4099    1.1270    0.0000 C   0  0  0  0  0  0  0  0  0  0  0  0
   11.8224    0.4125    0.0000 Cl  0  0  0  0  0  0  0  0  0  0  0  0
   10.5849    1.1270    0.0000 C   0  0  0  0  0  0  0  0  0  0  0  0
   10.1724    0.4125    0.0000 F   0  0  0  0  0  0  0  0  0  0  0  0
    8.9349    1.1270    0.0000 C   0  0  0  0  0  0  0  0  0  0  0  0
    8.1099    1.1270    0.0000 C   0  0  0  0  0  0  0  0  0  0  0  0
    7.6974    0.4125    0.0000 O   0  0  0  0  0  0  0  0  0  0  0  0
    6.4599    1.1270    0.0000 C   0  0  0  0  0  0  0  0  0  0  0  0
    5.6349    1.1270    0.0000 C   0  0  0  0  0  0  0  0  0  0  0  0
    5.2224    0.4125    0.0000 C   0  0  0  0  0  0  0  0  0  0  0  0
    5.6349   -0.3020    0.0000 C   0  0  0  0  0  0  0  0  0  0  0  0
    6.4599   -0.3020    0.0000 C   0  0  0  0  0  0  0  0  0  0  0  0
    6.8724    0.4125    0.0000 N   0  0  0  0  0  0  0  0  0  0  0  0
    4.3974    0.4125    0.0000 C   0  0  0  0  0  0  0  0  0  0  0  0
    3.9849    1.1270    0.0000 C   0  0  0  0  0  0  0  0  0  0  0  0
    3.1599    1.1270    0.0000 C   0  0  0  0  0  0  0  0  0  0  0  0
    2.7474    0.4125    0.0000 C   0  0  0  0  0  0  0  0  0  0  0  0
    3.1599   -0.3020    0.0000 C   0  0  0  0  0  0  0  0  0  0  0  0
    2.7474   -1.0164    0.0000 F   0  0  0  0  0  0  0  0  0  0  0  0
    3.9849   -0.3020    0.0000 C   0  0  0  0  0  0  0  0  0  0  0  0
    4.3974   -1.0164    0.0000 F   0  0  0  0  0  0  0  0  0  0  0  0
    4.3974    1.8414    0.0000 N   0  0  0  0  0  0  0  0  0  0  0  0
    3.9849    2.5559    0.0000 C   0  0  0  0  0  0  0  0  0  0  0  0
    3.1599    2.5559    0.0000 O   0  0  0  0  0  0  0  0  0  0  0  0
  2  1  1  6  0  0  0
  2  3  1  0  0  0  0
  3  4  1  0  0  0  0
  4  5  1  0  0  0  0
  5  6  1  0  0  0  0
  6  7  1  6  0  0  0
  7  8  1  0  0  0  0
  8  9  1  0  0  0  0
  9 10  1  0  0  0  0
 10 11  1  0  0  0  0
 11 12  4  0  0  0  0
 12 13  1  0  0  0  0
 12 14  4  0  0  0  0
 14 15  4  0  0  0  0
 15 16  4  0  0  0  0
 16 17  1  0  0  0  0
 16 18  4  0  0  0  0
 11 18  4  0  0  0  0
 18 19  1  0  0  0  0
 10 20  2  0  0  0  0
 20 21  1  0  0  0  0
  7 21  1  0  0  0  0
 21 22  2  0  0  0  0
  6 23  1  0  0  0  0
 23 24  4  0  0  0  0
 24 25  4  0  0  0  0
 25 26  4  0  0  0  0
 26 27  4  0  0  0  0
 27 28  4  0  0  0  0
 23 28  4  0  0  0  0
 25 29  1  0  0  0  0
 29 30  4  0  0  0  0
 30 31  4  0  0  0  0
 31 32  4  0  0  0  0
 32 33  4  0  0  0  0
 33 34  1  0  0  0  0
 33 35  4  0  0  0  0
 29 35  4  0  0  0  0
 35 36  1  0  0  0  0
 30 37  1  0  0  0  0
 37 38  1  0  0  0  0
  2 38  1  0  0  0  0
 38 39  2  0  0  0  0
M  END
>  <CdId>
358755

>  <Mol Weight>
557.966

>  <Formula>
C29H24ClF4N3O2

>  <cmpd_chemblid>
CHEMBL4112077

>  <std_type>
Ki

>  <std_value>
19.36

>  <std_unit>
nM

>  <target_id>
CHEMBL2016

>  <target_name>
Coagulation factor IX

>  <organism>
Homo sapiens

>  <target_type>
SINGLE PROTEIN

$$$$

  Mrv0541 08052111042D          

 42 46  0  0  1  0            999 V2000
    8.6329   -2.2539    0.0000 C   0  0  0  0  0  0  0  0  0  0  0  0
    8.2204   -1.5395    0.0000 O   0  0  0  0  0  0  0  0  0  0  0  0
    7.3954   -1.5395    0.0000 C   0  0  0  0  0  0  0  0  0  0  0  0
    6.9829   -2.2539    0.0000 O   0  0  0  0  0  0  0  0  0  0  0  0
    6.9829   -0.8250    0.0000 N   0  0  0  0  0  0  0  0  0  0  0  0
    6.1579   -0.8250    0.0000 C   0  0  0  0  0  0  0  0  0  0  0  0
    5.7454   -0.1105    0.0000 C   0  0  0  0  0  0  0  0  0  0  0  0
    4.9204   -0.1105    0.0000 C   0  0  0  0  0  0  0  0  0  0  0  0
    4.5079   -0.8250    0.0000 C   0  0  0  0  0  0  0  0  0  0  0  0
    4.9204   -1.5395    0.0000 C   0  0  0  0  0  0  0  0  0  0  0  0
    5.7454   -1.5395    0.0000 C   0  0  0  0  0  0  0  0  0  0  0  0
    4.5079   -2.2539    0.0000 N   0  0  0  0  0  0  0  0  0  0  0  0
    4.9204   -2.9684    0.0000 C   0  0  0  0  0  0  0  0  0  0  0  0
    5.7454   -2.9684    0.0000 O   0  0  0  0  0  0  0  0  0  0  0  0
    4.5079   -3.6829    0.0000 C   0  0  2  0  0  0  0  0  0  0  0  0
    4.9204   -4.3974    0.0000 C   0  0  0  0  0  0  0  0  0  0  0  0
    3.6829   -3.6829    0.0000 C   0  0  0  0  0  0  0  0  0  0  0  0
    3.2704   -2.9684    0.0000 C   0  0  0  0  0  0  0  0  0  0  0  0
    2.4454   -2.9684    0.0000 C   0  0  0  0  0  0  0  0  0  0  0  0
    2.0329   -2.2539    0.0000 C   0  0  2  0  0  0  0  0  0  0  0  0
    1.2079   -2.2539    0.0000 N   0  0  0  0  0  0  0  0  0  0  0  0
    0.7954   -2.9684    0.0000 C   0  0  0  0  0  0  0  0  0  0  0  0
   -0.0296   -2.9684    0.0000 C   0  0  0  0  0  0  0  0  0  0  0  0
   -0.4421   -2.2539    0.0000 C   0  0  0  0  0  0  0  0  0  0  0  0
   -1.2671   -2.2539    0.0000 C   0  0  0  0  0  0  0  0  0  0  0  0
   -1.6796   -2.9684    0.0000 C   0  0  0  0  0  0  0  0  0  0  0  0
   -2.5046   -2.9684    0.0000 C   0  0  0  0  0  0  0  0  0  0  0  0
   -2.9171   -2.2539    0.0000 C   0  0  0  0  0  0  0  0  0  0  0  0
   -2.5046   -1.5395    0.0000 C   0  0  0  0  0  0  0  0  0  0  0  0
   -2.9171   -0.8250    0.0000 O   0  0  0  0  0  0  0  0  0  0  0  0
   -3.7421   -0.8250    0.0000 C   0  0  0  0  0  0  0  0  0  0  0  0
   -1.6796   -1.5395    0.0000 C   0  0  0  0  0  0  0  0  0  0  0  0
   -1.2671   -0.8250    0.0000 F   0  0  0  0  0  0  0  0  0  0  0  0
   -0.0296   -1.5395    0.0000 C   0  0  0  0  0  0  0  0  0  0  0  0
    0.7954   -1.5395    0.0000 C   0  0  0  0  0  0  0  0  0  0  0  0
    1.2079   -0.8250    0.0000 O   0  0  0  0  0  0  0  0  0  0  0  0
    2.4454   -1.5395    0.0000 C   0  0  0  0  0  0  0  0  0  0  0  0
    3.2704   -1.5395    0.0000 C   0  0  0  0  0  0  0  0  0  0  0  0
    3.6829   -0.8250    0.0000 C   0  0  0  0  0  0  0  0  0  0  0  0
    3.2704   -0.1105    0.0000 C   0  0  0  0  0  0  0  0  0  0  0  0
    2.4454   -0.1105    0.0000 C   0  0  0  0  0  0  0  0  0  0  0  0
    2.0329   -0.8250    0.0000 N   0  0  0  0  0  0  0  0  0  0  0  0
  1  2  1  0  0  0  0
  2  3  1  0  0  0  0
  3  4  2  0  0  0  0
  3  5  1  0  0  0  0
  5  6  1  0  0  0  0
  6  7  4  0  0  0  0
  7  8  4  0  0  0  0
  8  9  4  0  0  0  0
  9 10  4  0  0  0  0
 10 11  4  0  0  0  0
  6 11  4  0  0  0  0
 10 12  1  0  0  0  0
 12 13  1  0  0  0  0
 13 14  2  0  0  0  0
 13 15  1  0  0  0  0
 15 16  1  6  0  0  0
 15 17  1  0  0  0  0
 17 18  1  0  0  0  0
 18 19  1  0  0  0  0
 19 20  1  0  0  0  0
 20 21  1  6  0  0  0
 21 22  1  0  0  0  0
 22 23  1  0  0  0  0
 23 24  1  0  0  0  0
 24 25  1  0  0  0  0
 25 26  4  0  0  0  0
 26 27  4  0  0  0  0
 27 28  4  0  0  0  0
 28 29  4  0  0  0  0
 29 30  1  0  0  0  0
 30 31  1  0  0  0  0
 29 32  4  0  0  0  0
 25 32  4  0  0  0  0
 32 33  1  0  0  0  0
 24 34  2  0  0  0  0
 34 35  1  0  0  0  0
 21 35  1  0  0  0  0
 35 36  2  0  0  0  0
 20 37  1  0  0  0  0
 37 38  4  0  0  0  0
 38 39  4  0  0  0  0
  9 39  1  0  0  0  0
 39 40  4  0  0  0  0
 40 41  4  0  0  0  0
 41 42  4  0  0  0  0
 37 42  4  0  0  0  0
M  END
>  <CdId>
358756

>  <Mol Weight>
572.6266

>  <Formula>
C32H33FN4O5

>  <cmpd_chemblid>
CHEMBL4107022

>  <std_type>
Ki

>  <std_value>
128.6

>  <std_unit>
nM

>  <target_id>
CHEMBL2016

>  <target_name>
Coagulation factor IX

>  <organism>
Homo sapiens

>  <target_type>
SINGLE PROTEIN

$$$$

  Mrv0541 08052111042D          

 29 32  0  0  0  0            999 V2000
    6.2102    6.8854    0.0000 C   0  0  0  0  0  0  0  0  0  0  0  0
    6.2102    6.0604    0.0000 O   0  0  0  0  0  0  0  0  0  0  0  0
    5.4957    5.6479    0.0000 C   0  0  0  0  0  0  0  0  0  0  0  0
    4.7812    6.0604    0.0000 O   0  0  0  0  0  0  0  0  0  0  0  0
    5.4957    4.8229    0.0000 C   0  0  0  0  0  0  0  0  0  0  0  0
    4.7812    4.4104    0.0000 O   0  0  0  0  0  0  0  0  0  0  0  0
    4.7812    3.5854    0.0000 C   0  0  0  0  0  0  0  0  0  0  0  0
    5.4957    3.1729    0.0000 C   0  0  0  0  0  0  0  0  0  0  0  0
    5.4957    2.3479    0.0000 C   0  0  0  0  0  0  0  0  0  0  0  0
    4.7812    1.9354    0.0000 C   0  0  0  0  0  0  0  0  0  0  0  0
    4.0668    2.3479    0.0000 C   0  0  0  0  0  0  0  0  0  0  0  0
    3.3523    1.9354    0.0000 C   0  0  0  0  0  0  0  0  0  0  0  0
    3.3523    1.1104    0.0000 C   0  0  0  0  0  0  0  0  0  0  0  0
    2.6378    0.6979    0.0000 C   0  0  0  0  0  0  0  0  0  0  0  0
    1.9233    1.1104    0.0000 C   0  0  0  0  0  0  0  0  0  0  0  0
    1.1387    0.8555    0.0000 S   0  0  0  0  0  0  0  0  0  0  0  0
    0.6538    1.5229    0.0000 C   0  0  0  0  0  0  0  0  0  0  0  0
   -0.1712    1.5229    0.0000 C   0  0  0  0  0  0  0  0  0  0  0  0
   -0.5837    0.8085    0.0000 N   0  0  0  0  0  0  0  0  0  0  0  0
   -0.5837    2.2374    0.0000 N   0  0  0  0  0  0  0  0  0  0  0  0
    1.1387    2.1904    0.0000 C   0  0  0  0  0  0  0  0  0  0  0  0
    1.9233    1.9354    0.0000 C   0  0  0  0  0  0  0  0  0  0  0  0
    2.6378    2.3479    0.0000 C   0  0  0  0  0  0  0  0  0  0  0  0
    4.0668    3.1729    0.0000 C   0  0  0  0  0  0  0  0  0  0  0  0
    6.2102    4.4104    0.0000 C   0  0  0  0  0  0  0  0  0  0  0  0
    6.9638    4.7460    0.0000 C   0  0  0  0  0  0  0  0  0  0  0  0
    7.5159    4.1329    0.0000 C   0  0  0  0  0  0  0  0  0  0  0  0
    7.1034    3.4184    0.0000 C   0  0  0  0  0  0  0  0  0  0  0  0
    6.2964    3.5900    0.0000 S   0  0  0  0  0  0  0  0  0  0  0  0
  1  2  1  0  0  0  0
  2  3  1  0  0  0  0
  3  4  2  0  0  0  0
  3  5  1  0  0  0  0
  5  6  1  0  0  0  0
  6  7  1  0  0  0  0
  7  8  4  0  0  0  0
  8  9  4  0  0  0  0
  9 10  4  0  0  0  0
 10 11  4  0  0  0  0
 11 12  1  0  0  0  0
 12 13  4  0  0  0  0
 13 14  4  0  0  0  0
 14 15  4  0  0  0  0
 15 16  4  0  0  0  0
 16 17  4  0  0  0  0
 17 18  1  0  0  0  0
 18 19  2  0  0  0  0
 18 20  1  0  0  0  0
 17 21  4  0  0  0  0
 21 22  4  0  0  0  0
 15 22  4  0  0  0  0
 22 23  4  0  0  0  0
 12 23  4  0  0  0  0
 11 24  4  0  0  0  0
  7 24  4  0  0  0  0
  5 25  1  0  0  0  0
 25 26  4  0  0  0  0
 26 27  4  0  0  0  0
 27 28  4  0  0  0  0
 28 29  4  0  0  0  0
 25 29  4  0  0  0  0
M  END
>  <CdId>
358757

>  <Mol Weight>
422.52

>  <Formula>
C22H18N2O3S2

>  <cmpd_chemblid>
CHEMBL596950

>  <std_type>
Ki

>  <std_value>
3.0

>  <std_unit>
nM

>  <target_id>
CHEMBL2016

>  <target_name>
Coagulation factor IX

>  <organism>
Homo sapiens

>  <target_type>
SINGLE PROTEIN

$$$$

  Mrv0541 08052111042D          

 42 47  0  0  1  0            999 V2000
    3.9849    3.9849    0.0000 C   0  0  0  0  0  0  0  0  0  0  0  0
    4.3974    3.2704    0.0000 C   0  0  2  0  0  0  0  0  0  0  0  0
    5.2224    3.2704    0.0000 C   0  0  0  0  0  0  0  0  0  0  0  0
    5.6349    2.5559    0.0000 C   0  0  0  0  0  0  0  0  0  0  0  0
    6.4599    2.5559    0.0000 C   0  0  0  0  0  0  0  0  0  0  0  0
    6.8724    1.8414    0.0000 C   0  0  2  0  0  0  0  0  0  0  0  0
    7.6974    1.8414    0.0000 N   0  0  0  0  0  0  0  0  0  0  0  0
    8.1099    2.5559    0.0000 C   0  0  0  0  0  0  0  0  0  0  0  0
    8.9349    2.5559    0.0000 C   0  0  0  0  0  0  0  0  0  0  0  0
    9.3474    1.8414    0.0000 C   0  0  0  0  0  0  0  0  0  0  0  0
   10.1724    1.8414    0.0000 C   0  0  0  0  0  0  0  0  0  0  0  0
   10.5849    2.5559    0.0000 C   0  0  0  0  0  0  0  0  0  0  0  0
   10.1724    3.2704    0.0000 F   0  0  0  0  0  0  0  0  0  0  0  0
   11.4099    2.5559    0.0000 C   0  0  0  0  0  0  0  0  0  0  0  0
   11.8224    1.8414    0.0000 C   0  0  0  0  0  0  0  0  0  0  0  0
   11.4099    1.1270    0.0000 C   0  0  0  0  0  0  0  0  0  0  0  0
   11.8224    0.4125    0.0000 Cl  0  0  0  0  0  0  0  0  0  0  0  0
   10.5849    1.1270    0.0000 C   0  0  0  0  0  0  0  0  0  0  0  0
   10.1724    0.4125    0.0000 F   0  0  0  0  0  0  0  0  0  0  0  0
    8.9349    1.1270    0.0000 C   0  0  0  0  0  0  0  0  0  0  0  0
    8.1099    1.1270    0.0000 C   0  0  0  0  0  0  0  0  0  0  0  0
    7.6974    0.4125    0.0000 O   0  0  0  0  0  0  0  0  0  0  0  0
    6.4599    1.1270    0.0000 C   0  0  0  0  0  0  0  0  0  0  0  0
    5.6349    1.1270    0.0000 C   0  0  0  0  0  0  0  0  0  0  0  0
    5.2224    0.4125    0.0000 C   0  0  0  0  0  0  0  0  0  0  0  0
    5.6349   -0.3020    0.0000 C   0  0  0  0  0  0  0  0  0  0  0  0
    6.4599   -0.3020    0.0000 C   0  0  0  0  0  0  0  0  0  0  0  0
    6.8724    0.4125    0.0000 N   0  0  0  0  0  0  0  0  0  0  0  0
    4.3974    0.4125    0.0000 C   0  0  0  0  0  0  0  0  0  0  0  0
    3.9849   -0.3020    0.0000 C   0  0  0  0  0  0  0  0  0  0  0  0
    3.1599   -0.3020    0.0000 C   0  0  0  0  0  0  0  0  0  0  0  0
    2.7474   -1.0164    0.0000 C   0  0  0  0  0  0  0  0  0  0  0  0
    3.0829   -1.7701    0.0000 N   0  0  0  0  0  0  0  0  0  0  0  0
    2.4698   -2.3221    0.0000 N   0  0  0  0  0  0  0  0  0  0  0  0
    1.7553   -1.9096    0.0000 N   0  0  0  0  0  0  0  0  0  0  0  0
    1.9269   -1.1027    0.0000 N   0  0  0  0  0  0  0  0  0  0  0  0
    2.7474    0.4125    0.0000 C   0  0  0  0  0  0  0  0  0  0  0  0
    3.1599    1.1270    0.0000 C   0  0  0  0  0  0  0  0  0  0  0  0
    3.9849    1.1270    0.0000 C   0  0  0  0  0  0  0  0  0  0  0  0
    4.3974    1.8414    0.0000 N   0  0  0  0  0  0  0  0  0  0  0  0
    3.9849    2.5559    0.0000 C   0  0  0  0  0  0  0  0  0  0  0  0
    3.1599    2.5559    0.0000 O   0  0  0  0  0  0  0  0  0  0  0  0
  2  1  1  6  0  0  0
  2  3  1  0  0  0  0
  3  4  1  0  0  0  0
  4  5  1  0  0  0  0
  5  6  1  0  0  0  0
  6  7  1  6  0  0  0
  7  8  1  0  0  0  0
  8  9  1  0  0  0  0
  9 10  1  0  0  0  0
 10 11  1  0  0  0  0
 11 12  4  0  0  0  0
 12 13  1  0  0  0  0
 12 14  4  0  0  0  0
 14 15  4  0  0  0  0
 15 16  4  0  0  0  0
 16 17  1  0  0  0  0
 16 18  4  0  0  0  0
 11 18  4  0  0  0  0
 18 19  1  0  0  0  0
 10 20  2  0  0  0  0
 20 21  1  0  0  0  0
  7 21  1  0  0  0  0
 21 22  2  0  0  0  0
  6 23  1  0  0  0  0
 23 24  4  0  0  0  0
 24 25  4  0  0  0  0
 25 26  4  0  0  0  0
 26 27  4  0  0  0  0
 27 28  4  0  0  0  0
 23 28  4  0  0  0  0
 25 29  1  0  0  0  0
 29 30  4  0  0  0  0
 30 31  4  0  0  0  0
 31 32  1  0  0  0  0
 32 33  4  0  0  0  0
 33 34  4  0  0  0  0
 34 35  4  0  0  0  0
 35 36  4  0  0  0  0
 32 36  4  0  0  0  0
 31 37  4  0  0  0  0
 37 38  4  0  0  0  0
 38 39  4  0  0  0  0
 29 39  4  0  0  0  0
 39 40  1  0  0  0  0
 40 41  1  0  0  0  0
  2 41  1  0  0  0  0
 41 42  2  0  0  0  0
M  STY  1   1 DAT
M  SAL   1  1  35
M  SDT   1 MRV_IMPLICIT_H                                        
M  SDD   1     0.0000    0.0000    DR    ALL  0       0  
M  SED   1 IMPL_H1
M  END
>  <CdId>
358759

>  <Mol Weight>
590.023

>  <Formula>
C30H26ClF2N7O2

>  <cmpd_chemblid>
CHEMBL4111619

>  <std_type>
Ki

>  <std_value>
1.34

>  <std_unit>
nM

>  <target_id>
CHEMBL2016

>  <target_name>
Coagulation factor IX

>  <organism>
Homo sapiens

>  <target_type>
SINGLE PROTEIN

$$$$

  Mrv0541 08052111042D          

 40 43  0  0  0  0            999 V2000
    2.1434    1.2375    0.0000 C   0  0  0  0  0  0  0  0  0  0  0  0
    1.4289    0.8250    0.0000 C   0  0  0  0  0  0  0  0  0  0  0  0
    0.7145    1.2375    0.0000 O   0  0  0  0  0  0  0  0  0  0  0  0
    0.0000    0.8250    0.0000 C   0  0  0  0  0  0  0  0  0  0  0  0
   -0.7145    1.2375    0.0000 C   0  0  0  0  0  0  0  0  0  0  0  0
   -1.4289    0.8250    0.0000 C   0  0  0  0  0  0  0  0  0  0  0  0
   -1.4289   -0.0000    0.0000 C   0  0  0  0  0  0  0  0  0  0  0  0
   -2.1434   -0.4125    0.0000 C   0  0  0  0  0  0  0  0  0  0  0  0
   -2.1434   -1.2375    0.0000 C   0  0  0  0  0  0  0  0  0  0  0  0
   -2.8579   -1.6500    0.0000 C   0  0  0  0  0  0  0  0  0  0  0  0
   -3.5724   -1.2375    0.0000 C   0  0  0  0  0  0  0  0  0  0  0  0
   -4.2868   -1.6500    0.0000 C   0  0  0  0  0  0  0  0  0  0  0  0
   -4.2868   -2.4750    0.0000 O   0  0  0  0  0  0  0  0  0  0  0  0
   -5.0013   -1.2375    0.0000 N   0  0  0  0  0  0  0  0  0  0  0  0
   -5.7158   -1.6500    0.0000 C   0  0  0  0  0  0  0  0  0  0  0  0
   -6.4302   -1.2375    0.0000 C   0  0  0  0  0  0  0  0  0  0  0  0
   -7.1447   -0.8250    0.0000 C   0  0  0  0  0  0  0  0  0  0  0  0
   -6.8427   -1.9520    0.0000 C   0  0  0  0  0  0  0  0  0  0  0  0
   -6.0177   -0.5230    0.0000 C   0  0  0  0  0  0  0  0  0  0  0  0
   -3.5724   -0.4125    0.0000 C   0  0  0  0  0  0  0  0  0  0  0  0
   -2.8579   -0.0000    0.0000 C   0  0  0  0  0  0  0  0  0  0  0  0
   -2.8579    0.8250    0.0000 C   0  0  0  0  0  0  0  0  0  0  0  0
   -2.1434    1.2375    0.0000 O   0  0  0  0  0  0  0  0  0  0  0  0
   -3.5724    1.2375    0.0000 O   0  0  0  0  0  0  0  0  0  0  0  0
   -0.7145   -0.4125    0.0000 C   0  0  0  0  0  0  0  0  0  0  0  0
   -0.7145   -1.2375    0.0000 C   0  0  0  0  0  0  0  0  0  0  0  0
   -1.4289   -1.6500    0.0000 O   0  0  0  0  0  0  0  0  0  0  0  0
    0.0000   -1.6500    0.0000 N   0  0  0  0  0  0  0  0  0  0  0  0
    0.7145   -1.2375    0.0000 C   0  0  0  0  0  0  0  0  0  0  0  0
    0.7145   -0.4125    0.0000 C   0  0  0  0  0  0  0  0  0  0  0  0
    1.4289    0.0000    0.0000 C   0  0  0  0  0  0  0  0  0  0  0  0
    2.1434   -0.4125    0.0000 C   0  0  0  0  0  0  0  0  0  0  0  0
    2.8579    0.0000    0.0000 C   0  0  0  0  0  0  0  0  0  0  0  0
    2.8579    0.8250    0.0000 N   0  0  0  0  0  0  0  0  0  0  0  0
    3.5724   -0.4125    0.0000 N   0  0  0  0  0  0  0  0  0  0  0  0
    3.5724   -1.2375    0.0000 C   0  0  0  0  0  0  0  0  0  0  0  0
    2.8579   -1.6500    0.0000 C   0  0  0  0  0  0  0  0  0  0  0  0
    2.1434   -1.2375    0.0000 C   0  0  0  0  0  0  0  0  0  0  0  0
    1.4289   -1.6500    0.0000 C   0  0  0  0  0  0  0  0  0  0  0  0
    0.0000   -0.0000    0.0000 N   0  0  0  0  0  0  0  0  0  0  0  0
  1  2  1  0  0  0  0
  2  3  1  0  0  0  0
  3  4  1  0  0  0  0
  4  5  4  0  0  0  0
  5  6  4  0  0  0  0
  6  7  4  0  0  0  0
  7  8  1  0  0  0  0
  8  9  4  0  0  0  0
  9 10  4  0  0  0  0
 10 11  4  0  0  0  0
 11 12  1  0  0  0  0
 12 13  2  0  0  0  0
 12 14  1  0  0  0  0
 14 15  1  0  0  0  0
 15 16  1  0  0  0  0
 16 17  1  0  0  0  0
 16 18  1  0  0  0  0
 16 19  1  0  0  0  0
 11 20  4  0  0  0  0
 20 21  4  0  0  0  0
  8 21  4  0  0  0  0
 21 22  1  0  0  0  0
 22 23  2  0  0  0  0
 22 24  1  0  0  0  0
  7 25  4  0  0  0  0
 25 26  1  0  0  0  0
 26 27  2  0  0  0  0
 26 28  1  0  0  0  0
 28 29  1  0  0  0  0
 29 30  4  0  0  0  0
 30 31  4  0  0  0  0
 31 32  4  0  0  0  0
 32 33  4  0  0  0  0
 33 34  1  0  0  0  0
 33 35  4  0  0  0  0
 35 36  4  0  0  0  0
 36 37  4  0  0  0  0
 37 38  4  0  0  0  0
 32 38  4  0  0  0  0
 38 39  4  0  0  0  0
 29 39  4  0  0  0  0
 25 40  4  0  0  0  0
  4 40  4  0  0  0  0
M  END
>  <CdId>
358760

>  <Mol Weight>
541.5976

>  <Formula>
C30H31N5O5

>  <cmpd_chemblid>
CHEMBL2417893

>  <std_type>
Ki

>  <std_value>
900.0

>  <std_unit>
nM

>  <target_id>
CHEMBL2016

>  <target_name>
Coagulation factor IX

>  <organism>
Homo sapiens

>  <target_type>
SINGLE PROTEIN

$$$$

  Mrv0541 08052111042D          

 33 36  0  0  1  0            999 V2000
   -4.2868   -5.7750    0.0000 C   0  0  0  0  0  0  0  0  0  0  0  0
   -4.2868   -4.9500    0.0000 O   0  0  0  0  0  0  0  0  0  0  0  0
   -3.5724   -4.5375    0.0000 C   0  0  0  0  0  0  0  0  0  0  0  0
   -3.5724   -3.7125    0.0000 C   0  0  0  0  0  0  0  0  0  0  0  0
   -2.8579   -3.3000    0.0000 C   0  0  0  0  0  0  0  0  0  0  0  0
   -2.1434   -3.7125    0.0000 C   0  0  0  0  0  0  0  0  0  0  0  0
   -1.4289   -3.3000    0.0000 N   0  0  0  0  0  0  0  0  0  0  0  0
   -0.7145   -3.7125    0.0000 C   0  0  0  0  0  0  0  0  0  0  0  0
   -0.7145   -4.5375    0.0000 O   0  0  0  0  0  0  0  0  0  0  0  0
    0.0000   -3.3000    0.0000 O   0  0  0  0  0  0  0  0  0  0  0  0
    0.7145   -3.7125    0.0000 C   0  0  0  0  0  0  0  0  0  0  0  0
    1.4289   -3.3000    0.0000 C   0  0  2  0  0  0  0  0  0  0  0  0
    2.1434   -3.7125    0.0000 O   0  0  0  0  0  0  0  0  0  0  0  0
    2.8579   -3.3000    0.0000 C   0  0  0  0  0  0  0  0  0  0  0  0
    2.8579   -2.4750    0.0000 C   0  0  0  0  0  0  0  0  0  0  0  0
    3.5724   -2.0625    0.0000 C   0  0  0  0  0  0  0  0  0  0  0  0
    4.2868   -2.4750    0.0000 C   0  0  0  0  0  0  0  0  0  0  0  0
    4.2868   -3.3000    0.0000 C   0  0  0  0  0  0  0  0  0  0  0  0
    4.8999   -3.8520    0.0000 S   0  0  0  0  0  0  0  0  0  0  0  0
    4.5644   -4.6057    0.0000 C   0  0  0  0  0  0  0  0  0  0  0  0
    4.9769   -5.3202    0.0000 C   0  0  0  0  0  0  0  0  0  0  0  0
    5.8019   -5.3202    0.0000 N   0  0  0  0  0  0  0  0  0  0  0  0
    4.5644   -6.0346    0.0000 N   0  0  0  0  0  0  0  0  0  0  0  0
    3.7439   -4.5195    0.0000 C   0  0  0  0  0  0  0  0  0  0  0  0
    3.5724   -3.7125    0.0000 C   0  0  0  0  0  0  0  0  0  0  0  0
    1.4289   -2.4750    0.0000 C   0  0  0  0  0  0  0  0  0  0  0  0
    0.7145   -2.0625    0.0000 C   0  0  0  0  0  0  0  0  0  0  0  0
    0.7145   -1.2375    0.0000 C   0  0  0  0  0  0  0  0  0  0  0  0
    1.4289   -0.8250    0.0000 C   0  0  0  0  0  0  0  0  0  0  0  0
    2.1434   -1.2375    0.0000 C   0  0  0  0  0  0  0  0  0  0  0  0
    2.1434   -2.0625    0.0000 C   0  0  0  0  0  0  0  0  0  0  0  0
   -2.1434   -4.5375    0.0000 C   0  0  0  0  0  0  0  0  0  0  0  0
   -2.8579   -4.9500    0.0000 C   0  0  0  0  0  0  0  0  0  0  0  0
  1  2  1  0  0  0  0
  2  3  1  0  0  0  0
  3  4  4  0  0  0  0
  4  5  4  0  0  0  0
  5  6  4  0  0  0  0
  6  7  1  0  0  0  0
  7  8  1  0  0  0  0
  8  9  2  0  0  0  0
  8 10  1  0  0  0  0
 10 11  1  0  0  0  0
 11 12  1  0  0  0  0
 12 13  1  1  0  0  0
 13 14  1  0  0  0  0
 14 15  4  0  0  0  0
 15 16  4  0  0  0  0
 16 17  4  0  0  0  0
 17 18  4  0  0  0  0
 18 19  4  0  0  0  0
 19 20  4  0  0  0  0
 20 21  1  0  0  0  0
 21 22  2  0  0  0  0
 21 23  1  0  0  0  0
 20 24  4  0  0  0  0
 24 25  4  0  0  0  0
 14 25  4  0  0  0  0
 18 25  4  0  0  0  0
 12 26  1  0  0  0  0
 26 27  4  0  0  0  0
 27 28  4  0  0  0  0
 28 29  4  0  0  0  0
 29 30  4  0  0  0  0
 30 31  4  0  0  0  0
 26 31  4  0  0  0  0
  6 32  4  0  0  0  0
 32 33  4  0  0  0  0
  3 33  4  0  0  0  0
M  END
>  <CdId>
358761

>  <Mol Weight>
461.533

>  <Formula>
C25H23N3O4S

>  <cmpd_chemblid>
CHEMBL596968

>  <std_type>
Ki

>  <std_value>
3.0

>  <std_unit>
nM

>  <target_id>
CHEMBL2016

>  <target_name>
Coagulation factor IX

>  <organism>
Homo sapiens

>  <target_type>
SINGLE PROTEIN

$$$$

  Mrv0541 08052111042D          

 43 49  0  0  0  0            999 V2000
    6.2835   -1.3607    0.0000 N   0  0  0  0  0  0  0  0  0  0  0  0
    6.2835   -0.5357    0.0000 C   0  0  0  0  0  0  0  0  0  0  0  0
    6.9980   -0.1232    0.0000 N   0  0  0  0  0  0  0  0  0  0  0  0
    5.5691   -0.1232    0.0000 C   0  0  0  0  0  0  0  0  0  0  0  0
    5.5691    0.7018    0.0000 C   0  0  0  0  0  0  0  0  0  0  0  0
    4.8546    1.1143    0.0000 C   0  0  0  0  0  0  0  0  0  0  0  0
    4.1401    0.7018    0.0000 C   0  0  0  0  0  0  0  0  0  0  0  0
    3.3555    0.9567    0.0000 N   0  0  0  0  0  0  0  0  0  0  0  0
    2.8706    0.2893    0.0000 C   0  0  0  0  0  0  0  0  0  0  0  0
    3.3555   -0.3782    0.0000 C   0  0  0  0  0  0  0  0  0  0  0  0
    3.1006   -1.1628    0.0000 C   0  0  0  0  0  0  0  0  0  0  0  0
    2.2936   -1.3343    0.0000 C   0  0  0  0  0  0  0  0  0  0  0  0
    1.7415   -0.7212    0.0000 C   0  0  0  0  0  0  0  0  0  0  0  0
    0.9346   -0.8927    0.0000 C   0  0  0  0  0  0  0  0  0  0  0  0
    0.3825   -0.2796    0.0000 C   0  0  0  0  0  0  0  0  0  0  0  0
    0.6375    0.5050    0.0000 C   0  0  0  0  0  0  0  0  0  0  0  0
    0.0854    1.1181    0.0000 C   0  0  0  0  0  0  0  0  0  0  0  0
    0.3404    1.9027    0.0000 C   0  0  0  0  0  0  0  0  0  0  0  0
    1.1474    2.0742    0.0000 C   0  0  0  0  0  0  0  0  0  0  0  0
    1.6994    1.4611    0.0000 C   0  0  0  0  0  0  0  0  0  0  0  0
    1.4445    0.6765    0.0000 C   0  0  0  0  0  0  0  0  0  0  0  0
    1.9965    0.0634    0.0000 C   0  0  0  0  0  0  0  0  0  0  0  0
    3.6526   -1.7759    0.0000 C   0  0  0  0  0  0  0  0  0  0  0  0
    3.3976   -2.5605    0.0000 O   0  0  0  0  0  0  0  0  0  0  0  0
    4.4596   -1.6043    0.0000 N   0  0  0  0  0  0  0  0  0  0  0  0
    5.0116   -2.2174    0.0000 C   0  0  0  0  0  0  0  0  0  0  0  0
    5.8186   -2.0459    0.0000 C   0  0  0  0  0  0  0  0  0  0  0  0
    6.3706   -2.6590    0.0000 C   0  0  0  0  0  0  0  0  0  0  0  0
    6.1157   -3.4436    0.0000 C   0  0  0  0  0  0  0  0  0  0  0  0
    6.6677   -4.0567    0.0000 N   0  0  0  0  0  0  0  0  0  0  0  0
    7.4882   -3.9705    0.0000 C   0  0  0  0  0  0  0  0  0  0  0  0
    7.8237   -4.7242    0.0000 N   0  0  0  0  0  0  0  0  0  0  0  0
    7.2106   -5.2762    0.0000 C   0  0  0  0  0  0  0  0  0  0  0  0
    7.2106   -6.1012    0.0000 C   0  0  0  0  0  0  0  0  0  0  0  0
    6.4962   -6.5137    0.0000 C   0  0  0  0  0  0  0  0  0  0  0  0
    5.7817   -6.1012    0.0000 C   0  0  0  0  0  0  0  0  0  0  0  0
    5.7817   -5.2762    0.0000 C   0  0  0  0  0  0  0  0  0  0  0  0
    6.4962   -4.8637    0.0000 C   0  0  0  0  0  0  0  0  0  0  0  0
    5.3087   -3.6152    0.0000 C   0  0  0  0  0  0  0  0  0  0  0  0
    4.7566   -3.0021    0.0000 C   0  0  0  0  0  0  0  0  0  0  0  0
    3.9497   -3.1736    0.0000 F   0  0  0  0  0  0  0  0  0  0  0  0
    4.1401   -0.1232    0.0000 C   0  0  0  0  0  0  0  0  0  0  0  0
    4.8546   -0.5357    0.0000 C   0  0  0  0  0  0  0  0  0  0  0  0
  1  2  2  0  0  0  0
  2  3  1  0  0  0  0
  2  4  1  0  0  0  0
  4  5  4  0  0  0  0
  5  6  4  0  0  0  0
  6  7  4  0  0  0  0
  7  8  4  0  0  0  0
  8  9  4  0  0  0  0
  9 10  4  0  0  0  0
 10 11  1  0  0  0  0
 11 12  1  0  0  0  0
 12 13  1  0  0  0  0
 13 14  4  0  0  0  0
 14 15  4  0  0  0  0
 15 16  4  0  0  0  0
 16 17  4  0  0  0  0
 17 18  4  0  0  0  0
 18 19  4  0  0  0  0
 19 20  4  0  0  0  0
 20 21  4  0  0  0  0
 16 21  4  0  0  0  0
 21 22  4  0  0  0  0
 13 22  4  0  0  0  0
 11 23  1  0  0  0  0
 23 24  2  0  0  0  0
 23 25  1  0  0  0  0
 25 26  1  0  0  0  0
 26 27  4  0  0  0  0
 27 28  4  0  0  0  0
 28 29  4  0  0  0  0
 29 30  1  0  0  0  0
 30 31  4  0  0  0  0
 31 32  4  0  0  0  0
 32 33  4  0  0  0  0
 33 34  4  0  0  0  0
 34 35  4  0  0  0  0
 35 36  4  0  0  0  0
 36 37  4  0  0  0  0
 37 38  4  0  0  0  0
 33 38  4  0  0  0  0
 30 38  4  0  0  0  0
 29 39  4  0  0  0  0
 39 40  4  0  0  0  0
 26 40  4  0  0  0  0
 40 41  1  0  0  0  0
 10 42  4  0  0  0  0
  7 42  4  0  0  0  0
 42 43  4  0  0  0  0
  4 43  4  0  0  0  0
M  STY  1   1 DAT
M  SAL   1  1   8
M  SDT   1 MRV_IMPLICIT_H                                        
M  SDD   1     0.0000    0.0000    DR    ALL  0       0  
M  SED   1 IMPL_H1
M  END
>  <CdId>
358762

>  <Mol Weight>
566.6269

>  <Formula>
C35H27FN6O

>  <cmpd_chemblid>
CHEMBL186410

>  <std_type>
Ki

>  <std_value>
98.0

>  <std_unit>
nM

>  <target_id>
CHEMBL2016

>  <target_name>
Coagulation factor IX

>  <organism>
Homo sapiens

>  <target_type>
SINGLE PROTEIN

$$$$

  Mrv0541 08052111042D          

 40 44  0  0  1  0            999 V2000
    2.8579    0.8250    0.0000 C   0  0  0  0  0  0  0  0  0  0  0  0
    2.1434    1.2375    0.0000 C   0  0  0  0  0  0  0  0  0  0  0  0
    1.4289    0.8250    0.0000 O   0  0  0  0  0  0  0  0  0  0  0  0
    0.7145    1.2375    0.0000 C   0  0  0  0  0  0  0  0  0  0  0  0
    0.7145    2.0625    0.0000 O   0  0  0  0  0  0  0  0  0  0  0  0
    0.0000    0.8250    0.0000 C   0  0  1  0  0  0  0  0  0  0  0  0
    0.0000    0.0000    0.0000 C   0  0  0  0  0  0  0  0  0  0  0  0
    0.7145   -0.4125    0.0000 C   0  0  0  0  0  0  0  0  0  0  0  0
    1.4289    0.0000    0.0000 C   0  0  0  0  0  0  0  0  0  0  0  0
    2.1434   -0.4125    0.0000 C   0  0  0  0  0  0  0  0  0  0  0  0
    2.8579    0.0000    0.0000 C   0  0  0  0  0  0  0  0  0  0  0  0
    3.5724   -0.4125    0.0000 C   0  0  0  0  0  0  0  0  0  0  0  0
    3.5724   -1.2375    0.0000 N   0  0  0  0  0  0  0  0  0  0  0  0
    2.8579   -1.6500    0.0000 C   0  0  0  0  0  0  0  0  0  0  0  0
    2.8579   -2.4750    0.0000 N   0  0  0  0  0  0  0  0  0  0  0  0
    2.1434   -1.2375    0.0000 C   0  0  0  0  0  0  0  0  0  0  0  0
    1.4289   -1.6500    0.0000 C   0  0  0  0  0  0  0  0  0  0  0  0
    0.7145   -1.2375    0.0000 C   0  0  0  0  0  0  0  0  0  0  0  0
    0.0000   -1.6500    0.0000 O   0  0  0  0  0  0  0  0  0  0  0  0
   -0.7145   -1.2375    0.0000 C   0  0  0  0  0  0  0  0  0  0  0  0
   -0.7145    1.2375    0.0000 N   0  0  0  0  0  0  0  0  0  0  0  0
   -1.4681    0.9019    0.0000 C   0  0  0  0  0  0  0  0  0  0  0  0
   -2.0202    1.5150    0.0000 C   0  0  0  0  0  0  0  0  0  0  0  0
   -1.6077    2.2295    0.0000 C   0  0  2  0  0  0  0  0  0  0  0  0
   -1.9432    2.9832    0.0000 N   0  0  0  0  0  0  0  0  0  0  0  0
   -2.7637    3.0694    0.0000 S   0  0  0  0  0  0  0  0  0  0  0  0
   -2.6775    3.8899    0.0000 O   0  0  0  0  0  0  0  0  0  0  0  0
   -2.8500    2.2489    0.0000 O   0  0  0  0  0  0  0  0  0  0  0  0
   -3.5842    3.1557    0.0000 C   0  0  0  0  0  0  0  0  0  0  0  0
   -4.1362    2.5426    0.0000 C   0  0  0  0  0  0  0  0  0  0  0  0
   -4.8899    2.8781    0.0000 N   0  0  0  0  0  0  0  0  0  0  0  0
   -4.8037    3.6986    0.0000 C   0  0  0  0  0  0  0  0  0  0  0  0
   -5.4168    4.2506    0.0000 N   0  0  0  0  0  0  0  0  0  0  0  0
   -6.2237    4.0791    0.0000 C   0  0  0  0  0  0  0  0  0  0  0  0
   -6.6362    4.7936    0.0000 C   0  0  0  0  0  0  0  0  0  0  0  0
   -6.0842    5.4067    0.0000 C   0  0  0  0  0  0  0  0  0  0  0  0
   -5.3305    5.0711    0.0000 C   0  0  0  0  0  0  0  0  0  0  0  0
   -3.9967    3.8701    0.0000 S   0  0  0  0  0  0  0  0  0  0  0  0
   -0.8007    2.0580    0.0000 C   0  0  0  0  0  0  0  0  0  0  0  0
   -0.1876    2.6100    0.0000 O   0  0  0  0  0  0  0  0  0  0  0  0
  1  2  1  0  0  0  0
  2  3  1  0  0  0  0
  3  4  1  0  0  0  0
  4  5  2  0  0  0  0
  4  6  1  0  0  0  0
  6  7  1  0  0  0  0
  7  8  1  0  0  0  0
  8  9  4  0  0  0  0
  9 10  4  0  0  0  0
 10 11  4  0  0  0  0
 11 12  4  0  0  0  0
 12 13  4  0  0  0  0
 13 14  4  0  0  0  0
 14 15  1  0  0  0  0
 14 16  4  0  0  0  0
 10 16  4  0  0  0  0
 16 17  4  0  0  0  0
 17 18  4  0  0  0  0
  8 18  4  0  0  0  0
 18 19  1  0  0  0  0
 19 20  1  0  0  0  0
  6 21  1  1  0  0  0
 21 22  1  0  0  0  0
 22 23  1  0  0  0  0
 23 24  1  0  0  0  0
 24 25  1  6  0  0  0
 25 26  1  0  0  0  0
 26 27  2  0  0  0  0
 26 28  2  0  0  0  0
 26 29  1  0  0  0  0
 29 30  4  0  0  0  0
 30 31  4  0  0  0  0
 31 32  4  0  0  0  0
 32 33  1  0  0  0  0
 33 34  1  0  0  0  0
 34 35  1  0  0  0  0
 35 36  1  0  0  0  0
 36 37  1  0  0  0  0
 33 37  1  0  0  0  0
 32 38  4  0  0  0  0
 29 38  4  0  0  0  0
 24 39  1  0  0  0  0
 21 39  1  0  0  0  0
 39 40  2  0  0  0  0
M  END
>  <CdId>
358763

>  <Mol Weight>
588.699

>  <Formula>
C26H32N6O6S2

>  <cmpd_chemblid>
CHEMBL3942679

>  <std_type>
Ki

>  <std_value>
650.0

>  <std_unit>
nM

>  <target_id>
CHEMBL2016

>  <target_name>
Coagulation factor IX

>  <organism>
Homo sapiens

>  <target_type>
SINGLE PROTEIN

$$$$

  Mrv0541 08052111042D          

 36 40  0  0  1  0            999 V2000
    3.9849    3.9849    0.0000 C   0  0  0  0  0  0  0  0  0  0  0  0
    4.3974    3.2704    0.0000 C   0  0  2  0  0  0  0  0  0  0  0  0
    5.2224    3.2704    0.0000 C   0  0  0  0  0  0  0  0  0  0  0  0
    5.6349    2.5559    0.0000 C   0  0  0  0  0  0  0  0  0  0  0  0
    6.4599    2.5559    0.0000 C   0  0  0  0  0  0  0  0  0  0  0  0
    6.8724    1.8414    0.0000 C   0  0  2  0  0  0  0  0  0  0  0  0
    7.6974    1.8414    0.0000 N   0  0  0  0  0  0  0  0  0  0  0  0
    8.1099    2.5559    0.0000 C   0  0  0  0  0  0  0  0  0  0  0  0
    8.9349    2.5559    0.0000 C   0  0  0  0  0  0  0  0  0  0  0  0
    9.3474    1.8414    0.0000 C   0  0  0  0  0  0  0  0  0  0  0  0
   10.1724    1.8414    0.0000 C   0  0  0  0  0  0  0  0  0  0  0  0
   10.5849    2.5559    0.0000 C   0  0  0  0  0  0  0  0  0  0  0  0
   11.4099    2.5559    0.0000 C   0  0  0  0  0  0  0  0  0  0  0  0
   11.8224    1.8414    0.0000 C   0  0  0  0  0  0  0  0  0  0  0  0
   11.4099    1.1270    0.0000 C   0  0  0  0  0  0  0  0  0  0  0  0
   11.8224    0.4125    0.0000 Cl  0  0  0  0  0  0  0  0  0  0  0  0
   10.5849    1.1270    0.0000 C   0  0  0  0  0  0  0  0  0  0  0  0
   10.1724    0.4125    0.0000 F   0  0  0  0  0  0  0  0  0  0  0  0
    8.9349    1.1270    0.0000 C   0  0  0  0  0  0  0  0  0  0  0  0
    8.1099    1.1270    0.0000 C   0  0  0  0  0  0  0  0  0  0  0  0
    7.6974    0.4125    0.0000 O   0  0  0  0  0  0  0  0  0  0  0  0
    6.4599    1.1270    0.0000 C   0  0  0  0  0  0  0  0  0  0  0  0
    5.6349    1.1270    0.0000 C   0  0  0  0  0  0  0  0  0  0  0  0
    5.2224    0.4125    0.0000 C   0  0  0  0  0  0  0  0  0  0  0  0
    5.6349   -0.3020    0.0000 C   0  0  0  0  0  0  0  0  0  0  0  0
    6.4599   -0.3020    0.0000 C   0  0  0  0  0  0  0  0  0  0  0  0
    6.8724    0.4125    0.0000 N   0  0  0  0  0  0  0  0  0  0  0  0
    4.3974    0.4125    0.0000 C   0  0  0  0  0  0  0  0  0  0  0  0
    3.9849   -0.3020    0.0000 C   0  0  0  0  0  0  0  0  0  0  0  0
    3.1599   -0.3020    0.0000 C   0  0  0  0  0  0  0  0  0  0  0  0
    2.7474    0.4125    0.0000 C   0  0  0  0  0  0  0  0  0  0  0  0
    3.1599    1.1270    0.0000 C   0  0  0  0  0  0  0  0  0  0  0  0
    3.9849    1.1270    0.0000 C   0  0  0  0  0  0  0  0  0  0  0  0
    4.3974    1.8414    0.0000 N   0  0  0  0  0  0  0  0  0  0  0  0
    3.9849    2.5559    0.0000 C   0  0  0  0  0  0  0  0  0  0  0  0
    3.1599    2.5559    0.0000 O   0  0  0  0  0  0  0  0  0  0  0  0
  2  1  1  6  0  0  0
  2  3  1  0  0  0  0
  3  4  1  0  0  0  0
  4  5  1  0  0  0  0
  5  6  1  0  0  0  0
  6  7  1  6  0  0  0
  7  8  4  0  0  0  0
  8  9  4  0  0  0  0
  9 10  4  0  0  0  0
 10 11  1  0  0  0  0
 11 12  4  0  0  0  0
 12 13  4  0  0  0  0
 13 14  4  0  0  0  0
 14 15  4  0  0  0  0
 15 16  1  0  0  0  0
 15 17  4  0  0  0  0
 11 17  4  0  0  0  0
 17 18  1  0  0  0  0
 10 19  4  0  0  0  0
 19 20  4  0  0  0  0
  7 20  4  0  0  0  0
 20 21  2  0  0  0  0
  6 22  1  0  0  0  0
 22 23  4  0  0  0  0
 23 24  4  0  0  0  0
 24 25  4  0  0  0  0
 25 26  4  0  0  0  0
 26 27  4  0  0  0  0
 22 27  4  0  0  0  0
 24 28  1  0  0  0  0
 28 29  4  0  0  0  0
 29 30  4  0  0  0  0
 30 31  4  0  0  0  0
 31 32  4  0  0  0  0
 32 33  4  0  0  0  0
 28 33  4  0  0  0  0
 33 34  1  0  0  0  0
 34 35  1  0  0  0  0
  2 35  1  0  0  0  0
 35 36  2  0  0  0  0
M  END
>  <CdId>
358764

>  <Mol Weight>
501.979

>  <Formula>
C29H25ClFN3O2

>  <cmpd_chemblid>
CHEMBL4109625

>  <std_type>
Ki

>  <std_value>
47.61

>  <std_unit>
nM

>  <target_id>
CHEMBL2016

>  <target_name>
Coagulation factor IX

>  <organism>
Homo sapiens

>  <target_type>
SINGLE PROTEIN

$$$$

  Mrv0541 08052111042D          

 41 46  0  0  1  0            999 V2000
   -1.4066   -1.6301    0.0000 C   0  0  0  0  0  0  0  0  0  0  0  0
   -0.5996   -1.8016    0.0000 C   0  0  0  0  0  0  0  0  0  0  0  0
   -0.3446   -2.5862    0.0000 C   0  0  0  0  0  0  0  0  0  0  0  0
    0.4623   -2.7578    0.0000 C   0  0  0  0  0  0  0  0  0  0  0  0
    1.0144   -2.1447    0.0000 C   0  0  0  0  0  0  0  0  0  0  0  0
    1.8394   -2.1447    0.0000 C   0  0  0  0  0  0  0  0  0  0  0  0
    2.0943   -1.3601    0.0000 C   0  0  0  0  0  0  0  0  0  0  0  0
    1.4269   -0.8751    0.0000 N   0  0  0  0  0  0  0  0  0  0  0  0
    0.7594   -1.3601    0.0000 N   0  0  0  0  0  0  0  0  0  0  0  0
   -0.0476   -1.1885    0.0000 C   0  0  0  0  0  0  0  0  0  0  0  0
    2.9013   -1.1885    0.0000 C   0  0  0  0  0  0  0  0  0  0  0  0
    3.4533   -1.8016    0.0000 C   0  0  0  0  0  0  0  0  0  0  0  0
    3.1984   -2.5862    0.0000 C   0  0  2  0  0  0  0  0  0  0  0  0
    4.0153   -2.7011    0.0000 N   0  0  0  0  0  0  0  0  0  0  0  0
    4.5233   -2.0510    0.0000 C   0  0  0  0  0  0  0  0  0  0  0  0
    4.2142   -1.2860    0.0000 O   0  0  0  0  0  0  0  0  0  0  0  0
    5.3402   -2.1658    0.0000 C   0  0  0  0  0  0  0  0  0  0  0  0
    5.8481   -1.5157    0.0000 C   0  0  0  0  0  0  0  0  0  0  0  0
    5.5391   -0.7507    0.0000 Cl  0  0  0  0  0  0  0  0  0  0  0  0
    6.6651   -1.6305    0.0000 C   0  0  0  0  0  0  0  0  0  0  0  0
    6.9742   -2.3954    0.0000 C   0  0  0  0  0  0  0  0  0  0  0  0
    7.7911   -2.5102    0.0000 N   0  0  0  0  0  0  0  0  0  0  0  0
    8.3642   -1.9168    0.0000 C   0  0  0  0  0  0  0  0  0  0  0  0
    9.1057   -2.2784    0.0000 N   0  0  0  0  0  0  0  0  0  0  0  0
    8.9909   -3.0954    0.0000 C   0  0  0  0  0  0  0  0  0  0  0  0
    9.5844   -3.6685    0.0000 C   0  0  0  0  0  0  0  0  0  0  0  0
    8.1785   -3.2387    0.0000 N   0  0  0  0  0  0  0  0  0  0  0  0
    6.4662   -3.0455    0.0000 C   0  0  0  0  0  0  0  0  0  0  0  0
    5.6493   -2.9307    0.0000 C   0  0  0  0  0  0  0  0  0  0  0  0
    5.1414   -3.5808    0.0000 Cl  0  0  0  0  0  0  0  0  0  0  0  0
    3.2272   -3.4107    0.0000 C   0  0  0  0  0  0  0  0  0  0  0  0
    3.9556   -3.7981    0.0000 C   0  0  0  0  0  0  0  0  0  0  0  0
    3.9844   -4.6226    0.0000 C   0  0  0  0  0  0  0  0  0  0  0  0
    3.2847   -5.0597    0.0000 C   0  0  0  0  0  0  0  0  0  0  0  0
    2.5563   -4.6724    0.0000 C   0  0  0  0  0  0  0  0  0  0  0  0
    1.8567   -5.1096    0.0000 C   0  0  0  0  0  0  0  0  0  0  0  0
    1.1570   -5.5468    0.0000 F   0  0  0  0  0  0  0  0  0  0  0  0
    1.4195   -4.4100    0.0000 F   0  0  0  0  0  0  0  0  0  0  0  0
    2.2939   -5.8092    0.0000 F   0  0  0  0  0  0  0  0  0  0  0  0
    2.5275   -3.8479    0.0000 C   0  0  0  0  0  0  0  0  0  0  0  0
    2.3914   -2.7578    0.0000 C   0  0  0  0  0  0  0  0  0  0  0  0
  1  2  1  0  0  0  0
  2  3  4  0  0  0  0
  3  4  4  0  0  0  0
  4  5  4  0  0  0  0
  5  6  4  0  0  0  0
  6  7  4  0  0  0  0
  7  8  4  0  0  0  0
  8  9  4  0  0  0  0
  5  9  4  0  0  0  0
  9 10  4  0  0  0  0
  2 10  4  0  0  0  0
  7 11  1  0  0  0  0
 11 12  1  0  0  0  0
 12 13  1  0  0  0  0
 13 14  1  1  0  0  0
 14 15  1  0  0  0  0
 15 16  2  0  0  0  0
 15 17  1  0  0  0  0
 17 18  4  0  0  0  0
 18 19  1  0  0  0  0
 18 20  4  0  0  0  0
 20 21  4  0  0  0  0
 21 22  1  0  0  0  0
 22 23  4  0  0  0  0
 23 24  4  0  0  0  0
 24 25  4  0  0  0  0
 25 26  1  0  0  0  0
 25 27  4  0  0  0  0
 22 27  4  0  0  0  0
 21 28  4  0  0  0  0
 28 29  4  0  0  0  0
 17 29  4  0  0  0  0
 29 30  1  0  0  0  0
 13 31  1  6  0  0  0
 31 32  4  0  0  0  0
 32 33  4  0  0  0  0
 33 34  4  0  0  0  0
 34 35  4  0  0  0  0
 35 36  1  0  0  0  0
 36 37  1  0  0  0  0
 36 38  1  0  0  0  0
 36 39  1  0  0  0  0
 35 40  4  0  0  0  0
 31 40  4  0  0  0  0
 13 41  1  0  0  0  0
  6 41  1  0  0  0  0
M  END
>  <CdId>
358765

>  <Mol Weight>
599.434

>  <Formula>
C29H23Cl2F3N6O

>  <cmpd_chemblid>
CHEMBL3628950

>  <std_type>
Ki

>  <std_value>
4.5

>  <std_unit>
nM

>  <target_id>
CHEMBL2016

>  <target_name>
Coagulation factor IX

>  <organism>
Homo sapiens

>  <target_type>
SINGLE PROTEIN

$$$$

  Mrv0541 08052111042D          

 39 43  0  0  1  0            999 V2000
    3.9849    3.9849    0.0000 C   0  0  0  0  0  0  0  0  0  0  0  0
    4.3974    3.2704    0.0000 C   0  0  2  0  0  0  0  0  0  0  0  0
    5.2224    3.2704    0.0000 C   0  0  0  0  0  0  0  0  0  0  0  0
    5.6349    2.5559    0.0000 C   0  0  0  0  0  0  0  0  0  0  0  0
    6.4599    2.5559    0.0000 C   0  0  0  0  0  0  0  0  0  0  0  0
    6.8724    1.8414    0.0000 C   0  0  2  0  0  0  0  0  0  0  0  0
    7.6974    1.8414    0.0000 N   0  0  0  0  0  0  0  0  0  0  0  0
    8.1099    2.5559    0.0000 C   0  0  0  0  0  0  0  0  0  0  0  0
    8.9349    2.5559    0.0000 C   0  0  0  0  0  0  0  0  0  0  0  0
    9.3474    1.8414    0.0000 C   0  0  0  0  0  0  0  0  0  0  0  0
   10.1724    1.8414    0.0000 C   0  0  0  0  0  0  0  0  0  0  0  0
   10.5849    2.5559    0.0000 C   0  0  0  0  0  0  0  0  0  0  0  0
   10.1724    3.2704    0.0000 F   0  0  0  0  0  0  0  0  0  0  0  0
   11.4099    2.5559    0.0000 C   0  0  0  0  0  0  0  0  0  0  0  0
   11.8224    1.8414    0.0000 C   0  0  0  0  0  0  0  0  0  0  0  0
   11.4099    1.1270    0.0000 C   0  0  0  0  0  0  0  0  0  0  0  0
   11.8224    0.4125    0.0000 Cl  0  0  0  0  0  0  0  0  0  0  0  0
   10.5849    1.1270    0.0000 C   0  0  0  0  0  0  0  0  0  0  0  0
   10.1724    0.4125    0.0000 F   0  0  0  0  0  0  0  0  0  0  0  0
    8.9349    1.1270    0.0000 C   0  0  0  0  0  0  0  0  0  0  0  0
    8.1099    1.1270    0.0000 C   0  0  0  0  0  0  0  0  0  0  0  0
    7.6974    0.4125    0.0000 O   0  0  0  0  0  0  0  0  0  0  0  0
    6.4599    1.1270    0.0000 C   0  0  0  0  0  0  0  0  0  0  0  0
    5.6349    1.1270    0.0000 C   0  0  0  0  0  0  0  0  0  0  0  0
    5.2224    0.4125    0.0000 C   0  0  0  0  0  0  0  0  0  0  0  0
    5.6349   -0.3020    0.0000 C   0  0  0  0  0  0  0  0  0  0  0  0
    6.4599   -0.3020    0.0000 C   0  0  0  0  0  0  0  0  0  0  0  0
    6.8724    0.4125    0.0000 N   0  0  0  0  0  0  0  0  0  0  0  0
    4.3974    0.4125    0.0000 C   0  0  0  0  0  0  0  0  0  0  0  0
    3.9849   -0.3020    0.0000 C   0  0  0  0  0  0  0  0  0  0  0  0
    4.3974   -1.0164    0.0000 F   0  0  0  0  0  0  0  0  0  0  0  0
    3.1599   -0.3020    0.0000 C   0  0  0  0  0  0  0  0  0  0  0  0
    2.7474    0.4125    0.0000 C   0  0  0  0  0  0  0  0  0  0  0  0
    1.9224    0.4125    0.0000 F   0  0  0  0  0  0  0  0  0  0  0  0
    3.1599    1.1270    0.0000 C   0  0  0  0  0  0  0  0  0  0  0  0
    3.9849    1.1270    0.0000 C   0  0  0  0  0  0  0  0  0  0  0  0
    4.3974    1.8414    0.0000 N   0  0  0  0  0  0  0  0  0  0  0  0
    3.9849    2.5559    0.0000 C   0  0  0  0  0  0  0  0  0  0  0  0
    3.1599    2.5559    0.0000 O   0  0  0  0  0  0  0  0  0  0  0  0
  2  1  1  6  0  0  0
  2  3  1  0  0  0  0
  3  4  1  0  0  0  0
  4  5  1  0  0  0  0
  5  6  1  0  0  0  0
  6  7  1  6  0  0  0
  7  8  1  0  0  0  0
  8  9  1  0  0  0  0
  9 10  1  0  0  0  0
 10 11  1  0  0  0  0
 11 12  4  0  0  0  0
 12 13  1  0  0  0  0
 12 14  4  0  0  0  0
 14 15  4  0  0  0  0
 15 16  4  0  0  0  0
 16 17  1  0  0  0  0
 16 18  4  0  0  0  0
 11 18  4  0  0  0  0
 18 19  1  0  0  0  0
 10 20  2  0  0  0  0
 20 21  1  0  0  0  0
  7 21  1  0  0  0  0
 21 22  2  0  0  0  0
  6 23  1  0  0  0  0
 23 24  4  0  0  0  0
 24 25  4  0  0  0  0
 25 26  4  0  0  0  0
 26 27  4  0  0  0  0
 27 28  4  0  0  0  0
 23 28  4  0  0  0  0
 25 29  1  0  0  0  0
 29 30  4  0  0  0  0
 30 31  1  0  0  0  0
 30 32  4  0  0  0  0
 32 33  4  0  0  0  0
 33 34  1  0  0  0  0
 33 35  4  0  0  0  0
 35 36  4  0  0  0  0
 29 36  4  0  0  0  0
 36 37  1  0  0  0  0
 37 38  1  0  0  0  0
  2 38  1  0  0  0  0
 38 39  2  0  0  0  0
M  END
>  <CdId>
358766

>  <Mol Weight>
557.966

>  <Formula>
C29H24ClF4N3O2

>  <cmpd_chemblid>
CHEMBL4111733

>  <std_type>
Ki

>  <std_value>
50.04

>  <std_unit>
nM

>  <target_id>
CHEMBL2016

>  <target_name>
Coagulation factor IX

>  <organism>
Homo sapiens

>  <target_type>
SINGLE PROTEIN

$$$$

  Mrv0541 08052111042D          

 56 61  0  0  1  0            999 V2000
    3.9849    3.9849    0.0000 C   0  0  0  0  0  0  0  0  0  0  0  0
    4.3974    3.2704    0.0000 C   0  0  2  0  0  0  0  0  0  0  0  0
    5.2224    3.2704    0.0000 C   0  0  0  0  0  0  0  0  0  0  0  0
    5.6349    2.5559    0.0000 C   0  0  0  0  0  0  0  0  0  0  0  0
    6.4599    2.5559    0.0000 C   0  0  0  0  0  0  0  0  0  0  0  0
    6.8724    1.8414    0.0000 C   0  0  2  0  0  0  0  0  0  0  0  0
    7.6974    1.8414    0.0000 N   0  0  0  0  0  0  0  0  0  0  0  0
    8.1099    2.5559    0.0000 C   0  0  0  0  0  0  0  0  0  0  0  0
    8.9349    2.5559    0.0000 C   0  0  0  0  0  0  0  0  0  0  0  0
    9.3474    1.8414    0.0000 C   0  0  0  0  0  0  0  0  0  0  0  0
   10.1724    1.8414    0.0000 C   0  0  0  0  0  0  0  0  0  0  0  0
   10.5849    2.5559    0.0000 C   0  0  0  0  0  0  0  0  0  0  0  0
   10.1724    3.2704    0.0000 F   0  0  0  0  0  0  0  0  0  0  0  0
   11.4099    2.5559    0.0000 C   0  0  0  0  0  0  0  0  0  0  0  0
   11.8224    1.8414    0.0000 C   0  0  0  0  0  0  0  0  0  0  0  0
   11.4099    1.1270    0.0000 C   0  0  0  0  0  0  0  0  0  0  0  0
   11.8224    0.4125    0.0000 Cl  0  0  0  0  0  0  0  0  0  0  0  0
   10.5849    1.1270    0.0000 C   0  0  0  0  0  0  0  0  0  0  0  0
   10.1724    0.4125    0.0000 F   0  0  0  0  0  0  0  0  0  0  0  0
    8.9349    1.1270    0.0000 C   0  0  0  0  0  0  0  0  0  0  0  0
    8.1099    1.1270    0.0000 C   0  0  0  0  0  0  0  0  0  0  0  0
    7.6974    0.4125    0.0000 O   0  0  0  0  0  0  0  0  0  0  0  0
    6.4599    1.1270    0.0000 C   0  0  0  0  0  0  0  0  0  0  0  0
    5.6349    1.1270    0.0000 C   0  0  0  0  0  0  0  0  0  0  0  0
    5.2224    0.4125    0.0000 C   0  0  0  0  0  0  0  0  0  0  0  0
    5.6349   -0.3020    0.0000 C   0  0  0  0  0  0  0  0  0  0  0  0
    6.4599   -0.3020    0.0000 C   0  0  0  0  0  0  0  0  0  0  0  0
    6.8724    0.4125    0.0000 N   0  0  0  0  0  0  0  0  0  0  0  0
    4.3974    0.4125    0.0000 C   0  0  0  0  0  0  0  0  0  0  0  0
    3.9849   -0.3020    0.0000 C   0  0  0  0  0  0  0  0  0  0  0  0
    3.1599   -0.3020    0.0000 C   0  0  0  0  0  0  0  0  0  0  0  0
    2.7474    0.4125    0.0000 C   0  0  0  0  0  0  0  0  0  0  0  0
    1.9224    0.4125    0.0000 N   0  0  0  0  0  0  0  0  0  0  0  0
    1.5099   -0.3020    0.0000 C   0  0  0  0  0  0  0  0  0  0  0  0
    1.9224   -1.0164    0.0000 O   0  0  0  0  0  0  0  0  0  0  0  0
    1.5099   -1.7309    0.0000 C   0  0  2  0  0  0  0  0  0  0  0  0
    1.9224   -2.4454    0.0000 C   0  0  0  0  0  0  0  0  0  0  0  0
    1.5099   -3.1599    0.0000 O   0  0  0  0  0  0  0  0  0  0  0  0
    0.6849   -1.7309    0.0000 C   0  0  1  0  0  0  0  0  0  0  0  0
    0.2724   -2.4454    0.0000 O   0  0  0  0  0  0  0  0  0  0  0  0
    0.2724   -1.0164    0.0000 C   0  0  1  0  0  0  0  0  0  0  0  0
   -0.5526   -1.0164    0.0000 O   0  0  0  0  0  0  0  0  0  0  0  0
    0.6849   -0.3020    0.0000 C   0  0  1  0  0  0  0  0  0  0  0  0
    0.2724    0.4125    0.0000 N   0  0  0  0  0  0  0  0  0  0  0  0
   -0.5526    0.4125    0.0000 C   0  0  0  0  0  0  0  0  0  0  0  0
   -0.9651   -0.3020    0.0000 O   0  0  0  0  0  0  0  0  0  0  0  0
   -0.9651    1.1270    0.0000 O   0  0  0  0  0  0  0  0  0  0  0  0
   -1.7901    1.1270    0.0000 C   0  0  0  0  0  0  0  0  0  0  0  0
   -2.6151    1.1270    0.0000 C   0  0  0  0  0  0  0  0  0  0  0  0
   -1.7901    1.9520    0.0000 C   0  0  0  0  0  0  0  0  0  0  0  0
   -1.7901    0.3020    0.0000 C   0  0  0  0  0  0  0  0  0  0  0  0
    3.1599    1.1270    0.0000 C   0  0  0  0  0  0  0  0  0  0  0  0
    3.9849    1.1270    0.0000 C   0  0  0  0  0  0  0  0  0  0  0  0
    4.3974    1.8414    0.0000 N   0  0  0  0  0  0  0  0  0  0  0  0
    3.9849    2.5559    0.0000 C   0  0  0  0  0  0  0  0  0  0  0  0
    3.1599    2.5559    0.0000 O   0  0  0  0  0  0  0  0  0  0  0  0
  2  1  1  6  0  0  0
  2  3  1  0  0  0  0
  3  4  1  0  0  0  0
  4  5  1  0  0  0  0
  5  6  1  0  0  0  0
  6  7  1  6  0  0  0
  7  8  1  0  0  0  0
  8  9  1  0  0  0  0
  9 10  1  0  0  0  0
 10 11  1  0  0  0  0
 11 12  4  0  0  0  0
 12 13  1  0  0  0  0
 12 14  4  0  0  0  0
 14 15  4  0  0  0  0
 15 16  4  0  0  0  0
 16 17  1  0  0  0  0
 16 18  4  0  0  0  0
 11 18  4  0  0  0  0
 18 19  1  0  0  0  0
 10 20  2  0  0  0  0
 20 21  1  0  0  0  0
  7 21  1  0  0  0  0
 21 22  2  0  0  0  0
  6 23  1  0  0  0  0
 23 24  4  0  0  0  0
 24 25  4  0  0  0  0
 25 26  4  0  0  0  0
 26 27  4  0  0  0  0
 27 28  4  0  0  0  0
 23 28  4  0  0  0  0
 25 29  1  0  0  0  0
 29 30  4  0  0  0  0
 30 31  4  0  0  0  0
 31 32  4  0  0  0  0
 32 33  1  0  0  0  0
 33 34  1  0  0  0  0
 34 35  1  0  0  0  0
 35 36  1  0  0  0  0
 36 37  1  6  0  0  0
 37 38  1  0  0  0  0
 36 39  1  0  0  0  0
 39 40  1  1  0  0  0
 39 41  1  0  0  0  0
 41 42  1  1  0  0  0
 41 43  1  0  0  0  0
 34 43  1  0  0  0  0
 43 44  1  1  0  0  0
 44 45  1  0  0  0  0
 45 46  2  0  0  0  0
 45 47  1  0  0  0  0
 47 48  1  0  0  0  0
 48 49  1  0  0  0  0
 48 50  1  0  0  0  0
 48 51  1  0  0  0  0
 32 52  4  0  0  0  0
 52 53  4  0  0  0  0
 29 53  4  0  0  0  0
 53 54  1  0  0  0  0
 54 55  1  0  0  0  0
  2 55  1  0  0  0  0
 55 56  2  0  0  0  0
M  END
>  <CdId>
358767

>  <Mol Weight>
798.272

>  <Formula>
C40H46ClF2N5O8

>  <cmpd_chemblid>
CHEMBL4107648

>  <std_type>
Ki

>  <std_value>
2.56

>  <std_unit>
nM

>  <target_id>
CHEMBL2016

>  <target_name>
Coagulation factor IX

>  <organism>
Homo sapiens

>  <target_type>
SINGLE PROTEIN

$$$$

  Mrv0541 08052111042D          

 39 42  0  0  1  0            999 V2000
    6.2014    3.9957    0.0000 C   0  0  0  0  0  0  0  0  0  0  0  0
    5.4168    4.2506    0.0000 N   0  0  0  0  0  0  0  0  0  0  0  0
    5.2452    5.0576    0.0000 C   0  0  0  0  0  0  0  0  0  0  0  0
    4.8037    3.6986    0.0000 C   0  0  0  0  0  0  0  0  0  0  0  0
    4.8899    2.8781    0.0000 N   0  0  0  0  0  0  0  0  0  0  0  0
    4.1362    2.5426    0.0000 C   0  0  0  0  0  0  0  0  0  0  0  0
    3.5842    3.1557    0.0000 C   0  0  0  0  0  0  0  0  0  0  0  0
    2.7637    3.0694    0.0000 S   0  0  0  0  0  0  0  0  0  0  0  0
    2.6775    3.8899    0.0000 O   0  0  0  0  0  0  0  0  0  0  0  0
    2.8500    2.2489    0.0000 O   0  0  0  0  0  0  0  0  0  0  0  0
    1.9432    2.9832    0.0000 N   0  0  0  0  0  0  0  0  0  0  0  0
    1.6077    2.2295    0.0000 C   0  0  1  0  0  0  0  0  0  0  0  0
    2.0202    1.5150    0.0000 C   0  0  0  0  0  0  0  0  0  0  0  0
    1.4681    0.9019    0.0000 C   0  0  0  0  0  0  0  0  0  0  0  0
    0.7145    1.2375    0.0000 N   0  0  0  0  0  0  0  0  0  0  0  0
    0.0000    0.8250    0.0000 C   0  0  2  0  0  0  0  0  0  0  0  0
    0.0000    0.0000    0.0000 C   0  0  0  0  0  0  0  0  0  0  0  0
    0.7145   -0.4125    0.0000 C   0  0  0  0  0  0  0  0  0  0  0  0
    1.4289    0.0000    0.0000 C   0  0  0  0  0  0  0  0  0  0  0  0
    2.1434   -0.4125    0.0000 C   0  0  0  0  0  0  0  0  0  0  0  0
    2.8579    0.0000    0.0000 C   0  0  0  0  0  0  0  0  0  0  0  0
    3.5724   -0.4125    0.0000 C   0  0  0  0  0  0  0  0  0  0  0  0
    3.5724   -1.2375    0.0000 N   0  0  0  0  0  0  0  0  0  0  0  0
    2.8579   -1.6500    0.0000 C   0  0  0  0  0  0  0  0  0  0  0  0
    2.8579   -2.4750    0.0000 N   0  0  0  0  0  0  0  0  0  0  0  0
    2.1434   -1.2375    0.0000 C   0  0  0  0  0  0  0  0  0  0  0  0
    1.4289   -1.6500    0.0000 C   0  0  0  0  0  0  0  0  0  0  0  0
    0.7145   -1.2375    0.0000 C   0  0  0  0  0  0  0  0  0  0  0  0
    0.0000   -1.6500    0.0000 O   0  0  0  0  0  0  0  0  0  0  0  0
   -0.7145   -1.2375    0.0000 C   0  0  0  0  0  0  0  0  0  0  0  0
   -0.3020   -0.5230    0.0000 F   0  0  0  0  0  0  0  0  0  0  0  0
   -1.1270   -1.9520    0.0000 F   0  0  0  0  0  0  0  0  0  0  0  0
   -1.4289   -0.8250    0.0000 F   0  0  0  0  0  0  0  0  0  0  0  0
   -0.7145    1.2375    0.0000 C   0  0  0  0  0  0  0  0  0  0  0  0
   -1.4289    0.8250    0.0000 O   0  0  0  0  0  0  0  0  0  0  0  0
   -0.7145    2.0625    0.0000 O   0  0  0  0  0  0  0  0  0  0  0  0
    0.8007    2.0580    0.0000 C   0  0  0  0  0  0  0  0  0  0  0  0
    0.1876    2.6100    0.0000 O   0  0  0  0  0  0  0  0  0  0  0  0
    3.9967    3.8701    0.0000 S   0  0  0  0  0  0  0  0  0  0  0  0
  1  2  1  0  0  0  0
  2  3  1  0  0  0  0
  2  4  1  0  0  0  0
  4  5  4  0  0  0  0
  5  6  4  0  0  0  0
  6  7  4  0  0  0  0
  7  8  1  0  0  0  0
  8  9  2  0  0  0  0
  8 10  2  0  0  0  0
  8 11  1  0  0  0  0
 12 11  1  1  0  0  0
 12 13  1  0  0  0  0
 13 14  1  0  0  0  0
 14 15  1  0  0  0  0
 16 15  1  6  0  0  0
 16 17  1  0  0  0  0
 17 18  1  0  0  0  0
 18 19  4  0  0  0  0
 19 20  4  0  0  0  0
 20 21  4  0  0  0  0
 21 22  4  0  0  0  0
 22 23  4  0  0  0  0
 23 24  4  0  0  0  0
 24 25  1  0  0  0  0
 24 26  4  0  0  0  0
 20 26  4  0  0  0  0
 26 27  4  0  0  0  0
 27 28  4  0  0  0  0
 18 28  4  0  0  0  0
 28 29  1  0  0  0  0
 29 30  1  0  0  0  0
 30 31  1  0  0  0  0
 30 32  1  0  0  0  0
 30 33  1  0  0  0  0
 16 34  1  0  0  0  0
 34 35  2  0  0  0  0
 34 36  1  0  0  0  0
 15 37  1  0  0  0  0
 12 37  1  0  0  0  0
 37 38  2  0  0  0  0
  7 39  4  0  0  0  0
  4 39  4  0  0  0  0
M  END
>  <CdId>
358768

>  <Mol Weight>
588.58

>  <Formula>
C22H23F3N6O6S2

>  <cmpd_chemblid>
CHEMBL3932132

>  <std_type>
Ki

>  <std_value>
60.0

>  <std_unit>
nM

>  <target_id>
CHEMBL2016

>  <target_name>
Coagulation factor IX

>  <organism>
Homo sapiens

>  <target_type>
SINGLE PROTEIN

$$$$

  Mrv0541 08052111042D          

 42 46  0  0  1  0            999 V2000
    8.6329   -2.2539    0.0000 C   0  0  0  0  0  0  0  0  0  0  0  0
    8.2204   -1.5395    0.0000 O   0  0  0  0  0  0  0  0  0  0  0  0
    7.3954   -1.5395    0.0000 C   0  0  0  0  0  0  0  0  0  0  0  0
    6.9829   -2.2539    0.0000 O   0  0  0  0  0  0  0  0  0  0  0  0
    6.9829   -0.8250    0.0000 N   0  0  0  0  0  0  0  0  0  0  0  0
    6.1579   -0.8250    0.0000 C   0  0  0  0  0  0  0  0  0  0  0  0
    5.7454   -0.1105    0.0000 C   0  0  0  0  0  0  0  0  0  0  0  0
    4.9204   -0.1105    0.0000 C   0  0  0  0  0  0  0  0  0  0  0  0
    4.5079   -0.8250    0.0000 C   0  0  0  0  0  0  0  0  0  0  0  0
    4.9204   -1.5395    0.0000 C   0  0  0  0  0  0  0  0  0  0  0  0
    5.7454   -1.5395    0.0000 C   0  0  0  0  0  0  0  0  0  0  0  0
    4.5079   -2.2539    0.0000 N   0  0  0  0  0  0  0  0  0  0  0  0
    4.9204   -2.9684    0.0000 C   0  0  0  0  0  0  0  0  0  0  0  0
    5.7454   -2.9684    0.0000 O   0  0  0  0  0  0  0  0  0  0  0  0
    4.5079   -3.6829    0.0000 C   0  0  2  0  0  0  0  0  0  0  0  0
    4.9204   -4.3974    0.0000 C   0  0  0  0  0  0  0  0  0  0  0  0
    3.6829   -3.6829    0.0000 C   0  0  0  0  0  0  0  0  0  0  0  0
    3.2704   -2.9684    0.0000 C   0  0  0  0  0  0  0  0  0  0  0  0
    2.4454   -2.9684    0.0000 C   0  0  0  0  0  0  0  0  0  0  0  0
    2.0329   -2.2539    0.0000 C   0  0  2  0  0  0  0  0  0  0  0  0
    1.2079   -2.2539    0.0000 N   0  0  0  0  0  0  0  0  0  0  0  0
    0.7954   -2.9684    0.0000 C   0  0  0  0  0  0  0  0  0  0  0  0
   -0.0296   -2.9684    0.0000 C   0  0  0  0  0  0  0  0  0  0  0  0
   -0.4421   -2.2539    0.0000 C   0  0  0  0  0  0  0  0  0  0  0  0
   -1.2671   -2.2539    0.0000 C   0  0  0  0  0  0  0  0  0  0  0  0
   -1.6796   -2.9684    0.0000 C   0  0  0  0  0  0  0  0  0  0  0  0
   -2.5046   -2.9684    0.0000 C   0  0  0  0  0  0  0  0  0  0  0  0
   -2.9171   -3.6829    0.0000 Cl  0  0  0  0  0  0  0  0  0  0  0  0
   -2.9171   -2.2539    0.0000 C   0  0  0  0  0  0  0  0  0  0  0  0
   -2.5046   -1.5395    0.0000 C   0  0  0  0  0  0  0  0  0  0  0  0
   -1.6796   -1.5395    0.0000 C   0  0  0  0  0  0  0  0  0  0  0  0
   -1.2671   -0.8250    0.0000 O   0  0  0  0  0  0  0  0  0  0  0  0
   -0.4421   -0.8250    0.0000 C   0  0  0  0  0  0  0  0  0  0  0  0
   -0.0296   -1.5395    0.0000 C   0  0  0  0  0  0  0  0  0  0  0  0
    0.7954   -1.5395    0.0000 C   0  0  0  0  0  0  0  0  0  0  0  0
    1.2079   -0.8250    0.0000 O   0  0  0  0  0  0  0  0  0  0  0  0
    2.4454   -1.5395    0.0000 C   0  0  0  0  0  0  0  0  0  0  0  0
    3.2704   -1.5395    0.0000 C   0  0  0  0  0  0  0  0  0  0  0  0
    3.6829   -0.8250    0.0000 C   0  0  0  0  0  0  0  0  0  0  0  0
    3.2704   -0.1105    0.0000 C   0  0  0  0  0  0  0  0  0  0  0  0
    2.4454   -0.1105    0.0000 C   0  0  0  0  0  0  0  0  0  0  0  0
    2.0329   -0.8250    0.0000 N   0  0  0  0  0  0  0  0  0  0  0  0
  1  2  1  0  0  0  0
  2  3  1  0  0  0  0
  3  4  2  0  0  0  0
  3  5  1  0  0  0  0
  5  6  1  0  0  0  0
  6  7  4  0  0  0  0
  7  8  4  0  0  0  0
  8  9  4  0  0  0  0
  9 10  4  0  0  0  0
 10 11  4  0  0  0  0
  6 11  4  0  0  0  0
 10 12  1  0  0  0  0
 12 13  1  0  0  0  0
 13 14  2  0  0  0  0
 13 15  1  0  0  0  0
 15 16  1  6  0  0  0
 15 17  1  0  0  0  0
 17 18  1  0  0  0  0
 18 19  1  0  0  0  0
 19 20  1  0  0  0  0
 20 21  1  6  0  0  0
 21 22  1  0  0  0  0
 22 23  1  0  0  0  0
 23 24  1  0  0  0  0
 24 25  1  0  0  0  0
 25 26  4  0  0  0  0
 26 27  4  0  0  0  0
 27 28  1  0  0  0  0
 27 29  4  0  0  0  0
 29 30  4  0  0  0  0
 30 31  4  0  0  0  0
 25 31  4  0  0  0  0
 31 32  1  0  0  0  0
 32 33  1  0  0  0  0
 24 34  2  0  0  0  0
 34 35  1  0  0  0  0
 21 35  1  0  0  0  0
 35 36  2  0  0  0  0
 20 37  1  0  0  0  0
 37 38  4  0  0  0  0
 38 39  4  0  0  0  0
  9 39  1  0  0  0  0
 39 40  4  0  0  0  0
 40 41  4  0  0  0  0
 41 42  4  0  0  0  0
 37 42  4  0  0  0  0
M  END
>  <CdId>
358769

>  <Mol Weight>
589.081

>  <Formula>
C32H33ClN4O5

>  <cmpd_chemblid>
CHEMBL4108942

>  <std_type>
Ki

>  <std_value>
2.56

>  <std_unit>
nM

>  <target_id>
CHEMBL2016

>  <target_name>
Coagulation factor IX

>  <organism>
Homo sapiens

>  <target_type>
SINGLE PROTEIN

$$$$

  Mrv0541 08052111042D          

 37 41  0  0  1  0            999 V2000
    3.9849    3.9849    0.0000 C   0  0  0  0  0  0  0  0  0  0  0  0
    4.3974    3.2704    0.0000 C   0  0  2  0  0  0  0  0  0  0  0  0
    5.2224    3.2704    0.0000 C   0  0  0  0  0  0  0  0  0  0  0  0
    5.6349    2.5559    0.0000 C   0  0  0  0  0  0  0  0  0  0  0  0
    6.4599    2.5559    0.0000 C   0  0  0  0  0  0  0  0  0  0  0  0
    6.8724    1.8414    0.0000 C   0  0  2  0  0  0  0  0  0  0  0  0
    7.6974    1.8414    0.0000 N   0  0  0  0  0  0  0  0  0  0  0  0
    8.1099    2.5559    0.0000 C   0  0  0  0  0  0  0  0  0  0  0  0
    8.9349    2.5559    0.0000 C   0  0  0  0  0  0  0  0  0  0  0  0
    9.3474    1.8414    0.0000 C   0  0  0  0  0  0  0  0  0  0  0  0
   10.1724    1.8414    0.0000 C   0  0  0  0  0  0  0  0  0  0  0  0
   10.5849    2.5559    0.0000 C   0  0  0  0  0  0  0  0  0  0  0  0
   10.1724    3.2704    0.0000 F   0  0  0  0  0  0  0  0  0  0  0  0
   11.4099    2.5559    0.0000 C   0  0  0  0  0  0  0  0  0  0  0  0
   11.8224    1.8414    0.0000 C   0  0  0  0  0  0  0  0  0  0  0  0
   11.4099    1.1270    0.0000 C   0  0  0  0  0  0  0  0  0  0  0  0
   11.8224    0.4125    0.0000 Cl  0  0  0  0  0  0  0  0  0  0  0  0
   10.5849    1.1270    0.0000 C   0  0  0  0  0  0  0  0  0  0  0  0
   10.1724    0.4125    0.0000 F   0  0  0  0  0  0  0  0  0  0  0  0
    8.9349    1.1270    0.0000 C   0  0  0  0  0  0  0  0  0  0  0  0
    8.1099    1.1270    0.0000 C   0  0  0  0  0  0  0  0  0  0  0  0
    7.6974    0.4125    0.0000 O   0  0  0  0  0  0  0  0  0  0  0  0
    6.4599    1.1270    0.0000 C   0  0  0  0  0  0  0  0  0  0  0  0
    6.8724    0.4125    0.0000 C   0  0  0  0  0  0  0  0  0  0  0  0
    6.4599   -0.3020    0.0000 C   0  0  0  0  0  0  0  0  0  0  0  0
    5.6349   -0.3020    0.0000 C   0  0  0  0  0  0  0  0  0  0  0  0
    5.2224    0.4125    0.0000 C   0  0  0  0  0  0  0  0  0  0  0  0
    5.6349    1.1270    0.0000 C   0  0  0  0  0  0  0  0  0  0  0  0
    4.3974    0.4125    0.0000 C   0  0  0  0  0  0  0  0  0  0  0  0
    3.9849   -0.3020    0.0000 C   0  0  0  0  0  0  0  0  0  0  0  0
    3.1599   -0.3020    0.0000 C   0  0  0  0  0  0  0  0  0  0  0  0
    2.7474    0.4125    0.0000 C   0  0  0  0  0  0  0  0  0  0  0  0
    3.1599    1.1270    0.0000 C   0  0  0  0  0  0  0  0  0  0  0  0
    3.9849    1.1270    0.0000 C   0  0  0  0  0  0  0  0  0  0  0  0
    4.3974    1.8414    0.0000 N   0  0  0  0  0  0  0  0  0  0  0  0
    3.9849    2.5559    0.0000 C   0  0  0  0  0  0  0  0  0  0  0  0
    3.1599    2.5559    0.0000 O   0  0  0  0  0  0  0  0  0  0  0  0
  2  1  1  6  0  0  0
  2  3  1  0  0  0  0
  3  4  1  0  0  0  0
  4  5  1  0  0  0  0
  5  6  1  0  0  0  0
  6  7  1  6  0  0  0
  7  8  1  0  0  0  0
  8  9  1  0  0  0  0
  9 10  1  0  0  0  0
 10 11  1  0  0  0  0
 11 12  4  0  0  0  0
 12 13  1  0  0  0  0
 12 14  4  0  0  0  0
 14 15  4  0  0  0  0
 15 16  4  0  0  0  0
 16 17  1  0  0  0  0
 16 18  4  0  0  0  0
 11 18  4  0  0  0  0
 18 19  1  0  0  0  0
 10 20  2  0  0  0  0
 20 21  1  0  0  0  0
  7 21  1  0  0  0  0
 21 22  2  0  0  0  0
  6 23  1  0  0  0  0
 23 24  4  0  0  0  0
 24 25  4  0  0  0  0
 25 26  4  0  0  0  0
 26 27  4  0  0  0  0
 27 28  4  0  0  0  0
 23 28  4  0  0  0  0
 27 29  1  0  0  0  0
 29 30  4  0  0  0  0
 30 31  4  0  0  0  0
 31 32  4  0  0  0  0
 32 33  4  0  0  0  0
 33 34  4  0  0  0  0
 29 34  4  0  0  0  0
 34 35  1  0  0  0  0
 35 36  1  0  0  0  0
  2 36  1  0  0  0  0
 36 37  2  0  0  0  0
M  END
>  <CdId>
358770

>  <Mol Weight>
520.997

>  <Formula>
C30H27ClF2N2O2

>  <cmpd_chemblid>
CHEMBL4115461

>  <std_type>
Ki

>  <std_value>
76.48

>  <std_unit>
nM

>  <target_id>
CHEMBL2016

>  <target_name>
Coagulation factor IX

>  <organism>
Homo sapiens

>  <target_type>
SINGLE PROTEIN

$$$$

  Mrv0541 08052111042D          

 39 42  0  0  1  0            999 V2000
    1.4289    2.4750    0.0000 C   0  0  0  0  0  0  0  0  0  0  0  0
    0.7145    2.0625    0.0000 O   0  0  0  0  0  0  0  0  0  0  0  0
    0.7145    1.2375    0.0000 C   0  0  0  0  0  0  0  0  0  0  0  0
    1.4289    0.8250    0.0000 O   0  0  0  0  0  0  0  0  0  0  0  0
    0.0000    0.8250    0.0000 C   0  0  1  0  0  0  0  0  0  0  0  0
    0.0000    0.0000    0.0000 C   0  0  0  0  0  0  0  0  0  0  0  0
    0.7145   -0.4125    0.0000 C   0  0  0  0  0  0  0  0  0  0  0  0
    1.4289    0.0000    0.0000 C   0  0  0  0  0  0  0  0  0  0  0  0
    2.1434   -0.4125    0.0000 C   0  0  0  0  0  0  0  0  0  0  0  0
    2.8579    0.0000    0.0000 C   0  0  0  0  0  0  0  0  0  0  0  0
    3.5724   -0.4125    0.0000 C   0  0  0  0  0  0  0  0  0  0  0  0
    3.5724   -1.2375    0.0000 N   0  0  0  0  0  0  0  0  0  0  0  0
    2.8579   -1.6500    0.0000 C   0  0  0  0  0  0  0  0  0  0  0  0
    2.8579   -2.4750    0.0000 N   0  0  0  0  0  0  0  0  0  0  0  0
    2.1434   -1.2375    0.0000 C   0  0  0  0  0  0  0  0  0  0  0  0
    1.4289   -1.6500    0.0000 C   0  0  0  0  0  0  0  0  0  0  0  0
    0.7145   -1.2375    0.0000 C   0  0  0  0  0  0  0  0  0  0  0  0
    0.0000   -1.6500    0.0000 C   0  0  0  0  0  0  0  0  0  0  0  0
   -0.7145   -2.0625    0.0000 F   0  0  0  0  0  0  0  0  0  0  0  0
   -0.4125   -0.9355    0.0000 F   0  0  0  0  0  0  0  0  0  0  0  0
    0.4125   -2.3645    0.0000 F   0  0  0  0  0  0  0  0  0  0  0  0
   -0.7145    1.2375    0.0000 N   0  0  0  0  0  0  0  0  0  0  0  0
   -1.4681    0.9019    0.0000 C   0  0  0  0  0  0  0  0  0  0  0  0
   -2.0202    1.5150    0.0000 C   0  0  0  0  0  0  0  0  0  0  0  0
   -1.6077    2.2295    0.0000 C   0  0  2  0  0  0  0  0  0  0  0  0
   -1.9432    2.9832    0.0000 N   0  0  0  0  0  0  0  0  0  0  0  0
   -2.7637    3.0694    0.0000 S   0  0  0  0  0  0  0  0  0  0  0  0
   -2.6775    3.8899    0.0000 O   0  0  0  0  0  0  0  0  0  0  0  0
   -2.8500    2.2489    0.0000 O   0  0  0  0  0  0  0  0  0  0  0  0
   -3.5842    3.1557    0.0000 C   0  0  0  0  0  0  0  0  0  0  0  0
   -4.1362    2.5426    0.0000 C   0  0  0  0  0  0  0  0  0  0  0  0
   -4.8899    2.8781    0.0000 N   0  0  0  0  0  0  0  0  0  0  0  0
   -4.8037    3.6986    0.0000 C   0  0  0  0  0  0  0  0  0  0  0  0
   -5.4168    4.2506    0.0000 N   0  0  0  0  0  0  0  0  0  0  0  0
   -6.2014    3.9957    0.0000 C   0  0  0  0  0  0  0  0  0  0  0  0
   -5.2452    5.0576    0.0000 C   0  0  0  0  0  0  0  0  0  0  0  0
   -3.9967    3.8701    0.0000 S   0  0  0  0  0  0  0  0  0  0  0  0
   -0.8007    2.0580    0.0000 C   0  0  0  0  0  0  0  0  0  0  0  0
   -0.1876    2.6100    0.0000 O   0  0  0  0  0  0  0  0  0  0  0  0
  1  2  1  0  0  0  0
  2  3  1  0  0  0  0
  3  4  2  0  0  0  0
  3  5  1  0  0  0  0
  5  6  1  0  0  0  0
  6  7  1  0  0  0  0
  7  8  4  0  0  0  0
  8  9  4  0  0  0  0
  9 10  4  0  0  0  0
 10 11  4  0  0  0  0
 11 12  4  0  0  0  0
 12 13  4  0  0  0  0
 13 14  1  0  0  0  0
 13 15  4  0  0  0  0
  9 15  4  0  0  0  0
 15 16  4  0  0  0  0
 16 17  4  0  0  0  0
  7 17  4  0  0  0  0
 17 18  1  0  0  0  0
 18 19  1  0  0  0  0
 18 20  1  0  0  0  0
 18 21  1  0  0  0  0
  5 22  1  1  0  0  0
 22 23  1  0  0  0  0
 23 24  1  0  0  0  0
 24 25  1  0  0  0  0
 25 26  1  6  0  0  0
 26 27  1  0  0  0  0
 27 28  2  0  0  0  0
 27 29  2  0  0  0  0
 27 30  1  0  0  0  0
 30 31  4  0  0  0  0
 31 32  4  0  0  0  0
 32 33  4  0  0  0  0
 33 34  1  0  0  0  0
 34 35  1  0  0  0  0
 34 36  1  0  0  0  0
 33 37  4  0  0  0  0
 30 37  4  0  0  0  0
 25 38  1  0  0  0  0
 22 38  1  0  0  0  0
 38 39  2  0  0  0  0
M  END
>  <CdId>
358771

>  <Mol Weight>
586.607

>  <Formula>
C23H25F3N6O5S2

>  <cmpd_chemblid>
CHEMBL3957169

>  <std_type>
Ki

>  <std_value>
945.0

>  <std_unit>
nM

>  <target_id>
CHEMBL2016

>  <target_name>
Coagulation factor IX

>  <organism>
Homo sapiens

>  <target_type>
SINGLE PROTEIN

$$$$

  Mrv0541 08052111042D          

 34 38  0  0  1  0            999 V2000
    0.8838   -2.1500    0.0000 N   0  0  0  0  0  0  0  0  0  0  0  0
    1.1387   -1.3654    0.0000 C   0  0  0  0  0  0  0  0  0  0  0  0
    0.6538   -0.6979    0.0000 N   0  0  0  0  0  0  0  0  0  0  0  0
    1.1387   -0.0305    0.0000 O   0  0  0  0  0  0  0  0  0  0  0  0
    1.9233   -0.2854    0.0000 C   0  0  0  0  0  0  0  0  0  0  0  0
    2.6378    0.1271    0.0000 C   0  0  0  0  0  0  0  0  0  0  0  0
    2.6378    0.9521    0.0000 N   0  0  0  0  0  0  0  0  0  0  0  0
    1.9704    1.4370    0.0000 C   0  0  0  0  0  0  0  0  0  0  0  0
    2.2253    2.2216    0.0000 C   0  0  0  0  0  0  0  0  0  0  0  0
    3.0503    2.2216    0.0000 C   0  0  1  0  0  0  0  0  0  0  0  0
    3.5352    2.8890    0.0000 N   0  0  0  0  0  0  0  0  0  0  0  0
    3.1997    3.6427    0.0000 C   0  0  0  0  0  0  0  0  0  0  0  0
    2.3792    3.7290    0.0000 O   0  0  0  0  0  0  0  0  0  0  0  0
    3.6846    4.3102    0.0000 C   0  0  0  0  0  0  0  0  0  0  0  0
    3.3490    5.0638    0.0000 C   0  0  0  0  0  0  0  0  0  0  0  0
    3.8340    5.7313    0.0000 C   0  0  0  0  0  0  0  0  0  0  0  0
    4.6544    5.6450    0.0000 C   0  0  0  0  0  0  0  0  0  0  0  0
    5.1394    6.3125    0.0000 N   0  0  0  0  0  0  0  0  0  0  0  0
    4.8844    7.0971    0.0000 C   0  0  0  0  0  0  0  0  0  0  0  0
    5.5519    7.5820    0.0000 N   0  0  0  0  0  0  0  0  0  0  0  0
    6.2193    7.0971    0.0000 N   0  0  0  0  0  0  0  0  0  0  0  0
    5.9644    6.3125    0.0000 C   0  0  0  0  0  0  0  0  0  0  0  0
    6.4493    5.6450    0.0000 C   0  0  0  0  0  0  0  0  0  0  0  0
    7.2698    5.7313    0.0000 F   0  0  0  0  0  0  0  0  0  0  0  0
    6.1137    4.8914    0.0000 F   0  0  0  0  0  0  0  0  0  0  0  0
    4.9900    4.8914    0.0000 C   0  0  0  0  0  0  0  0  0  0  0  0
    4.5051    4.2239    0.0000 C   0  0  0  0  0  0  0  0  0  0  0  0
    4.8406    3.4702    0.0000 Cl  0  0  0  0  0  0  0  0  0  0  0  0
    3.3053    1.4370    0.0000 C   0  0  0  0  0  0  0  0  0  0  0  0
    3.3523   -0.2854    0.0000 N   0  0  0  0  0  0  0  0  0  0  0  0
    3.3523   -1.1104    0.0000 C   0  0  0  0  0  0  0  0  0  0  0  0
    2.6378   -1.5229    0.0000 C   0  0  0  0  0  0  0  0  0  0  0  0
    2.6378   -2.3479    0.0000 Cl  0  0  0  0  0  0  0  0  0  0  0  0
    1.9233   -1.1104    0.0000 C   0  0  0  0  0  0  0  0  0  0  0  0
  1  2  1  0  0  0  0
  2  3  4  0  0  0  0
  3  4  4  0  0  0  0
  4  5  4  0  0  0  0
  5  6  4  0  0  0  0
  6  7  1  0  0  0  0
  7  8  1  0  0  0  0
  8  9  1  0  0  0  0
  9 10  1  0  0  0  0
 10 11  1  1  0  0  0
 11 12  1  0  0  0  0
 12 13  2  0  0  0  0
 12 14  1  0  0  0  0
 14 15  4  0  0  0  0
 15 16  4  0  0  0  0
 16 17  4  0  0  0  0
 17 18  1  0  0  0  0
 18 19  4  0  0  0  0
 19 20  4  0  0  0  0
 20 21  4  0  0  0  0
 21 22  4  0  0  0  0
 18 22  4  0  0  0  0
 22 23  1  0  0  0  0
 23 24  1  0  0  0  0
 23 25  1  0  0  0  0
 17 26  4  0  0  0  0
 26 27  4  0  0  0  0
 14 27  4  0  0  0  0
 27 28  1  0  0  0  0
 10 29  1  0  0  0  0
  7 29  1  0  0  0  0
  6 30  4  0  0  0  0
 30 31  4  0  0  0  0
 31 32  4  0  0  0  0
 32 33  1  0  0  0  0
 32 34  4  0  0  0  0
  2 34  4  0  0  0  0
  5 34  4  0  0  0  0
M  END
>  <CdId>
358772

>  <Mol Weight>
509.296

>  <Formula>
C20H16Cl2F2N8O2

>  <cmpd_chemblid>
CHEMBL4085239

>  <std_type>
Ki

>  <std_value>
22.5

>  <std_unit>
nM

>  <target_id>
CHEMBL2016

>  <target_name>
Coagulation factor IX

>  <organism>
Homo sapiens

>  <target_type>
SINGLE PROTEIN

$$$$

  Mrv0541 08052111042D          

 22 24  0  0  0  0            999 V2000
   -0.5837   -1.4124    0.0000 N   0  0  0  0  0  0  0  0  0  0  0  0
   -0.1712   -0.6979    0.0000 C   0  0  0  0  0  0  0  0  0  0  0  0
   -0.5837    0.0165    0.0000 N   0  0  0  0  0  0  0  0  0  0  0  0
    0.6538   -0.6979    0.0000 C   0  0  0  0  0  0  0  0  0  0  0  0
    1.1387   -0.0305    0.0000 C   0  0  0  0  0  0  0  0  0  0  0  0
    1.9233   -0.2854    0.0000 C   0  0  0  0  0  0  0  0  0  0  0  0
    2.6378    0.1271    0.0000 C   0  0  0  0  0  0  0  0  0  0  0  0
    2.6378    0.9521    0.0000 O   0  0  0  0  0  0  0  0  0  0  0  0
    1.9233    1.3646    0.0000 C   0  0  0  0  0  0  0  0  0  0  0  0
    1.2089    0.9521    0.0000 C   0  0  0  0  0  0  0  0  0  0  0  0
    0.4944    1.3646    0.0000 O   0  0  0  0  0  0  0  0  0  0  0  0
    1.9233    2.1896    0.0000 C   0  0  0  0  0  0  0  0  0  0  0  0
    1.2089    2.6021    0.0000 C   0  0  0  0  0  0  0  0  0  0  0  0
    1.2089    3.4271    0.0000 C   0  0  0  0  0  0  0  0  0  0  0  0
    1.9233    3.8396    0.0000 C   0  0  0  0  0  0  0  0  0  0  0  0
    2.6378    3.4271    0.0000 C   0  0  0  0  0  0  0  0  0  0  0  0
    2.6378    2.6021    0.0000 C   0  0  0  0  0  0  0  0  0  0  0  0
    3.3523   -0.2854    0.0000 C   0  0  0  0  0  0  0  0  0  0  0  0
    3.3523   -1.1104    0.0000 C   0  0  0  0  0  0  0  0  0  0  0  0
    2.6378   -1.5229    0.0000 C   0  0  0  0  0  0  0  0  0  0  0  0
    1.9233   -1.1104    0.0000 C   0  0  0  0  0  0  0  0  0  0  0  0
    1.1387   -1.3654    0.0000 S   0  0  0  0  0  0  0  0  0  0  0  0
  1  2  2  0  0  0  0
  2  3  1  0  0  0  0
  2  4  1  0  0  0  0
  4  5  4  0  0  0  0
  5  6  4  0  0  0  0
  6  7  4  0  0  0  0
  7  8  1  0  0  0  0
  8  9  1  0  0  0  0
  9 10  1  0  0  0  0
 10 11  1  0  0  0  0
  9 12  1  0  0  0  0
 12 13  4  0  0  0  0
 13 14  4  0  0  0  0
 14 15  4  0  0  0  0
 15 16  4  0  0  0  0
 16 17  4  0  0  0  0
 12 17  4  0  0  0  0
  7 18  4  0  0  0  0
 18 19  4  0  0  0  0
 19 20  4  0  0  0  0
 20 21  4  0  0  0  0
  6 21  4  0  0  0  0
 21 22  4  0  0  0  0
  4 22  4  0  0  0  0
M  END
>  <CdId>
358773

>  <Mol Weight>
312.386

>  <Formula>
C17H16N2O2S

>  <cmpd_chemblid>
CHEMBL597571

>  <std_type>
Ki

>  <std_value>
270.0

>  <std_unit>
nM

>  <target_id>
CHEMBL2016

>  <target_name>
Coagulation factor IX

>  <organism>
Homo sapiens

>  <target_type>
SINGLE PROTEIN

$$$$

  Mrv0541 08052111042D          

 33 36  0  0  1  0            999 V2000
   -1.5793   -0.4822    0.0000 C   0  0  0  0  0  0  0  0  0  0  0  0
   -1.8342   -1.2669    0.0000 O   0  0  0  0  0  0  0  0  0  0  0  0
   -1.2822   -1.8800    0.0000 C   0  0  0  0  0  0  0  0  0  0  0  0
   -0.4752   -1.7084    0.0000 O   0  0  0  0  0  0  0  0  0  0  0  0
   -1.5371   -2.6646    0.0000 C   0  0  2  0  0  0  0  0  0  0  0  0
   -2.3441   -2.8361    0.0000 C   0  0  0  0  0  0  0  0  0  0  0  0
   -2.5990   -3.6207    0.0000 C   0  0  0  0  0  0  0  0  0  0  0  0
   -2.0470   -4.2338    0.0000 C   0  0  0  0  0  0  0  0  0  0  0  0
   -1.2400   -4.0623    0.0000 C   0  0  0  0  0  0  0  0  0  0  0  0
   -0.9851   -3.2777    0.0000 C   0  0  0  0  0  0  0  0  0  0  0  0
   -0.1781   -3.1062    0.0000 N   0  0  0  0  0  0  0  0  0  0  0  0
    0.0768   -2.3215    0.0000 C   0  0  0  0  0  0  0  0  0  0  0  0
   -0.0094   -1.5010    0.0000 O   0  0  0  0  0  0  0  0  0  0  0  0
    0.8838   -2.1500    0.0000 C   0  0  0  0  0  0  0  0  0  0  0  0
    1.4358   -2.7631    0.0000 C   0  0  0  0  0  0  0  0  0  0  0  0
    1.1809   -3.5477    0.0000 C   0  0  0  0  0  0  0  0  0  0  0  0
    1.7329   -4.1608    0.0000 C   0  0  0  0  0  0  0  0  0  0  0  0
    1.4780   -4.9454    0.0000 C   0  0  0  0  0  0  0  0  0  0  0  0
    0.6710   -5.1170    0.0000 C   0  0  0  0  0  0  0  0  0  0  0  0
    0.1190   -4.5039    0.0000 C   0  0  0  0  0  0  0  0  0  0  0  0
    0.3739   -3.7192    0.0000 C   0  0  0  0  0  0  0  0  0  0  0  0
    1.1387   -1.3654    0.0000 C   0  0  0  0  0  0  0  0  0  0  0  0
    0.6538   -0.6979    0.0000 C   0  0  0  0  0  0  0  0  0  0  0  0
    1.1387   -0.0305    0.0000 N   0  0  0  0  0  0  0  0  0  0  0  0
    1.9233   -0.2854    0.0000 C   0  0  0  0  0  0  0  0  0  0  0  0
    2.6378    0.1271    0.0000 C   0  0  0  0  0  0  0  0  0  0  0  0
    3.3523   -0.2854    0.0000 C   0  0  0  0  0  0  0  0  0  0  0  0
    3.3523   -1.1104    0.0000 C   0  0  0  0  0  0  0  0  0  0  0  0
    4.0668   -1.5229    0.0000 C   0  0  0  0  0  0  0  0  0  0  0  0
    4.0668   -2.3479    0.0000 N   0  0  0  0  0  0  0  0  0  0  0  0
    4.7812   -1.1104    0.0000 N   0  0  0  0  0  0  0  0  0  0  0  0
    2.6378   -1.5229    0.0000 C   0  0  0  0  0  0  0  0  0  0  0  0
    1.9233   -1.1104    0.0000 C   0  0  0  0  0  0  0  0  0  0  0  0
  1  2  1  0  0  0  0
  2  3  1  0  0  0  0
  3  4  2  0  0  0  0
  5  3  1  1  0  0  0
  5  6  1  0  0  0  0
  6  7  1  0  0  0  0
  7  8  1  0  0  0  0
  8  9  1  0  0  0  0
  9 10  1  0  0  0  0
  5 10  1  0  0  0  0
 10 11  1  0  0  0  0
 11 12  1  0  0  0  0
 12 13  2  0  0  0  0
 12 14  1  0  0  0  0
 14 15  1  0  0  0  0
 15 16  1  0  0  0  0
 16 17  4  0  0  0  0
 17 18  4  0  0  0  0
 18 19  4  0  0  0  0
 19 20  4  0  0  0  0
 20 21  4  0  0  0  0
 16 21  4  0  0  0  0
 14 22  1  0  0  0  0
 22 23  4  0  0  0  0
 23 24  4  0  0  0  0
 24 25  4  0  0  0  0
 25 26  4  0  0  0  0
 26 27  4  0  0  0  0
 27 28  4  0  0  0  0
 28 29  1  0  0  0  0
 29 30  2  0  0  0  0
 29 31  1  0  0  0  0
 28 32  4  0  0  0  0
 32 33  4  0  0  0  0
 22 33  4  0  0  0  0
 25 33  4  0  0  0  0
M  STY  1   1 DAT
M  SAL   1  1  24
M  SDT   1 MRV_IMPLICIT_H                                        
M  SDD   1     0.0000    0.0000    DR    ALL  0       0  
M  SED   1 IMPL_H1
M  END
>  <CdId>
358774

>  <Mol Weight>
446.5414

>  <Formula>
C26H30N4O3

>  <cmpd_chemblid>
CHEMBL183398

>  <std_type>
Ki

>  <std_value>
340.0

>  <std_unit>
nM

>  <target_id>
CHEMBL2016

>  <target_name>
Coagulation factor IX

>  <organism>
Homo sapiens

>  <target_type>
SINGLE PROTEIN

$$$$

  Mrv0541 08052111042D          

 38 42  0  0  1  0            999 V2000
    2.7845    0.6979    0.0000 C   0  0  0  0  0  0  0  0  0  0  0  0
    2.0701    1.1104    0.0000 C   0  0  0  0  0  0  0  0  0  0  0  0
    1.3556    0.6979    0.0000 C   0  0  0  0  0  0  0  0  0  0  0  0
    0.6411    1.1104    0.0000 C   0  0  0  0  0  0  0  0  0  0  0  0
   -0.1435    0.8555    0.0000 N   0  0  0  0  0  0  0  0  0  0  0  0
   -0.6284    1.5229    0.0000 C   0  0  0  0  0  0  0  0  0  0  0  0
   -1.4534    1.5229    0.0000 C   0  0  1  0  0  0  0  0  0  0  0  0
   -1.8659    0.8085    0.0000 C   0  0  0  0  0  0  0  0  0  0  0  0
   -2.6909    0.8085    0.0000 N   0  0  0  0  0  0  0  0  0  0  0  0
   -3.1034    0.0940    0.0000 C   0  0  0  0  0  0  0  0  0  0  0  0
   -2.6909   -0.6205    0.0000 O   0  0  0  0  0  0  0  0  0  0  0  0
   -3.9284    0.0940    0.0000 C   0  0  0  0  0  0  0  0  0  0  0  0
   -4.3409   -0.6205    0.0000 C   0  0  0  0  0  0  0  0  0  0  0  0
   -3.9284   -1.3349    0.0000 Cl  0  0  0  0  0  0  0  0  0  0  0  0
   -5.1659   -0.6205    0.0000 C   0  0  0  0  0  0  0  0  0  0  0  0
   -5.5784    0.0940    0.0000 C   0  0  0  0  0  0  0  0  0  0  0  0
   -6.4034    0.0940    0.0000 N   0  0  0  0  0  0  0  0  0  0  0  0
   -6.8884   -0.5734    0.0000 C   0  0  0  0  0  0  0  0  0  0  0  0
   -7.6730   -0.3185    0.0000 N   0  0  0  0  0  0  0  0  0  0  0  0
   -7.6730    0.5065    0.0000 N   0  0  0  0  0  0  0  0  0  0  0  0
   -6.8884    0.7614    0.0000 C   0  0  0  0  0  0  0  0  0  0  0  0
   -5.1659    0.8085    0.0000 C   0  0  0  0  0  0  0  0  0  0  0  0
   -4.3409    0.8085    0.0000 C   0  0  0  0  0  0  0  0  0  0  0  0
   -3.9284    1.5229    0.0000 C   0  0  0  0  0  0  0  0  0  0  0  0
   -3.5159    2.2374    0.0000 F   0  0  0  0  0  0  0  0  0  0  0  0
   -3.2140    1.1104    0.0000 F   0  0  0  0  0  0  0  0  0  0  0  0
   -4.6429    1.9354    0.0000 F   0  0  0  0  0  0  0  0  0  0  0  0
   -1.8659    2.2374    0.0000 C   0  0  0  0  0  0  0  0  0  0  0  0
   -2.6909    2.2374    0.0000 C   0  0  0  0  0  0  0  0  0  0  0  0
   -3.1034    2.9519    0.0000 C   0  0  0  0  0  0  0  0  0  0  0  0
   -2.6909    3.6664    0.0000 C   0  0  0  0  0  0  0  0  0  0  0  0
   -1.8659    3.6664    0.0000 C   0  0  0  0  0  0  0  0  0  0  0  0
   -1.4534    2.9519    0.0000 C   0  0  0  0  0  0  0  0  0  0  0  0
   -0.1435    2.1904    0.0000 N   0  0  0  0  0  0  0  0  0  0  0  0
    0.6411    1.9354    0.0000 C   0  0  0  0  0  0  0  0  0  0  0  0
    1.3556    2.3479    0.0000 C   0  0  0  0  0  0  0  0  0  0  0  0
    2.0701    1.9354    0.0000 C   0  0  0  0  0  0  0  0  0  0  0  0
    2.7845    2.3479    0.0000 C   0  0  0  0  0  0  0  0  0  0  0  0
  1  2  1  0  0  0  0
  2  3  4  0  0  0  0
  3  4  4  0  0  0  0
  4  5  4  0  0  0  0
  5  6  4  0  0  0  0
  6  7  1  0  0  0  0
  7  8  1  0  0  0  0
  8  9  1  0  0  0  0
  9 10  1  0  0  0  0
 10 11  2  0  0  0  0
 10 12  1  0  0  0  0
 12 13  4  0  0  0  0
 13 14  1  0  0  0  0
 13 15  4  0  0  0  0
 15 16  4  0  0  0  0
 16 17  1  0  0  0  0
 17 18  4  0  0  0  0
 18 19  4  0  0  0  0
 19 20  4  0  0  0  0
 20 21  4  0  0  0  0
 17 21  4  0  0  0  0
 16 22  4  0  0  0  0
 22 23  4  0  0  0  0
 12 23  4  0  0  0  0
 23 24  1  0  0  0  0
 24 25  1  0  0  0  0
 24 26  1  0  0  0  0
 24 27  1  0  0  0  0
  7 28  1  1  0  0  0
 28 29  4  0  0  0  0
 29 30  4  0  0  0  0
 30 31  4  0  0  0  0
 31 32  4  0  0  0  0
 32 33  4  0  0  0  0
 28 33  4  0  0  0  0
  6 34  4  0  0  0  0
 34 35  4  0  0  0  0
  4 35  4  0  0  0  0
 35 36  4  0  0  0  0
 36 37  4  0  0  0  0
  2 37  4  0  0  0  0
 37 38  1  0  0  0  0
M  STY  1   1 DAT
M  SAL   1  1  34
M  SDT   1 MRV_IMPLICIT_H                                        
M  SDD   1     0.0000    0.0000    DR    ALL  0       0  
M  SED   1 IMPL_H1
M  END
>  <CdId>
358775

>  <Mol Weight>
538.951

>  <Formula>
C27H22ClF3N6O

>  <cmpd_chemblid>
CHEMBL3627867

>  <std_type>
Ki

>  <std_value>
21.8

>  <std_unit>
nM

>  <target_id>
CHEMBL2016

>  <target_name>
Coagulation factor IX

>  <organism>
Homo sapiens

>  <target_type>
SINGLE PROTEIN

$$$$

  Mrv0541 08052111042D          

 39 43  0  0  1  0            999 V2000
    3.9849    3.9849    0.0000 C   0  0  0  0  0  0  0  0  0  0  0  0
    4.3974    3.2704    0.0000 C   0  0  2  0  0  0  0  0  0  0  0  0
    5.2224    3.2704    0.0000 C   0  0  0  0  0  0  0  0  0  0  0  0
    5.6349    2.5559    0.0000 C   0  0  0  0  0  0  0  0  0  0  0  0
    6.4599    2.5559    0.0000 C   0  0  0  0  0  0  0  0  0  0  0  0
    6.8724    1.8414    0.0000 C   0  0  2  0  0  0  0  0  0  0  0  0
    7.6974    1.8414    0.0000 N   0  0  0  0  0  0  0  0  0  0  0  0
    8.1099    2.5559    0.0000 C   0  0  0  0  0  0  0  0  0  0  0  0
    8.9349    2.5559    0.0000 C   0  0  0  0  0  0  0  0  0  0  0  0
    9.3474    1.8414    0.0000 C   0  0  0  0  0  0  0  0  0  0  0  0
   10.1724    1.8414    0.0000 C   0  0  0  0  0  0  0  0  0  0  0  0
   10.5849    2.5559    0.0000 C   0  0  0  0  0  0  0  0  0  0  0  0
   10.1724    3.2704    0.0000 C   0  0  0  0  0  0  0  0  0  0  0  0
    9.7599    3.9849    0.0000 N   0  0  0  0  0  0  0  0  0  0  0  0
   11.4099    2.5559    0.0000 C   0  0  0  0  0  0  0  0  0  0  0  0
   11.8224    1.8414    0.0000 C   0  0  0  0  0  0  0  0  0  0  0  0
   11.4099    1.1270    0.0000 C   0  0  0  0  0  0  0  0  0  0  0  0
   11.8224    0.4125    0.0000 C   0  0  0  0  0  0  0  0  0  0  0  0
   12.2349   -0.3020    0.0000 N   0  0  0  0  0  0  0  0  0  0  0  0
   10.5849    1.1270    0.0000 C   0  0  0  0  0  0  0  0  0  0  0  0
   10.1724    0.4125    0.0000 F   0  0  0  0  0  0  0  0  0  0  0  0
    8.9349    1.1270    0.0000 C   0  0  0  0  0  0  0  0  0  0  0  0
    8.1099    1.1270    0.0000 C   0  0  0  0  0  0  0  0  0  0  0  0
    7.6974    0.4125    0.0000 O   0  0  0  0  0  0  0  0  0  0  0  0
    6.4599    1.1270    0.0000 C   0  0  0  0  0  0  0  0  0  0  0  0
    5.6349    1.1270    0.0000 C   0  0  0  0  0  0  0  0  0  0  0  0
    5.2224    0.4125    0.0000 C   0  0  0  0  0  0  0  0  0  0  0  0
    5.6349   -0.3020    0.0000 C   0  0  0  0  0  0  0  0  0  0  0  0
    6.4599   -0.3020    0.0000 C   0  0  0  0  0  0  0  0  0  0  0  0
    6.8724    0.4125    0.0000 N   0  0  0  0  0  0  0  0  0  0  0  0
    4.3974    0.4125    0.0000 C   0  0  0  0  0  0  0  0  0  0  0  0
    3.9849   -0.3020    0.0000 C   0  0  0  0  0  0  0  0  0  0  0  0
    3.1599   -0.3020    0.0000 C   0  0  0  0  0  0  0  0  0  0  0  0
    2.7474    0.4125    0.0000 C   0  0  0  0  0  0  0  0  0  0  0  0
    3.1599    1.1270    0.0000 C   0  0  0  0  0  0  0  0  0  0  0  0
    3.9849    1.1270    0.0000 C   0  0  0  0  0  0  0  0  0  0  0  0
    4.3974    1.8414    0.0000 N   0  0  0  0  0  0  0  0  0  0  0  0
    3.9849    2.5559    0.0000 C   0  0  0  0  0  0  0  0  0  0  0  0
    3.1599    2.5559    0.0000 O   0  0  0  0  0  0  0  0  0  0  0  0
  2  1  1  6  0  0  0
  2  3  1  0  0  0  0
  3  4  1  0  0  0  0
  4  5  1  0  0  0  0
  5  6  1  0  0  0  0
  6  7  1  6  0  0  0
  7  8  1  0  0  0  0
  8  9  1  0  0  0  0
  9 10  1  0  0  0  0
 10 11  1  0  0  0  0
 11 12  4  0  0  0  0
 12 13  1  0  0  0  0
 13 14  3  0  0  0  0
 12 15  4  0  0  0  0
 15 16  4  0  0  0  0
 16 17  4  0  0  0  0
 17 18  1  0  0  0  0
 18 19  3  0  0  0  0
 17 20  4  0  0  0  0
 11 20  4  0  0  0  0
 20 21  1  0  0  0  0
 10 22  2  0  0  0  0
 22 23  1  0  0  0  0
  7 23  1  0  0  0  0
 23 24  2  0  0  0  0
  6 25  1  0  0  0  0
 25 26  4  0  0  0  0
 26 27  4  0  0  0  0
 27 28  4  0  0  0  0
 28 29  4  0  0  0  0
 29 30  4  0  0  0  0
 25 30  4  0  0  0  0
 27 31  1  0  0  0  0
 31 32  4  0  0  0  0
 32 33  4  0  0  0  0
 33 34  4  0  0  0  0
 34 35  4  0  0  0  0
 35 36  4  0  0  0  0
 31 36  4  0  0  0  0
 36 37  1  0  0  0  0
 37 38  1  0  0  0  0
  2 38  1  0  0  0  0
 38 39  2  0  0  0  0
M  END
>  <CdId>
358776

>  <Mol Weight>
519.5688

>  <Formula>
C31H26FN5O2

>  <cmpd_chemblid>
CHEMBL4106981

>  <std_type>
Ki

>  <std_value>
324.9

>  <std_unit>
nM

>  <target_id>
CHEMBL2016

>  <target_name>
Coagulation factor IX

>  <organism>
Homo sapiens

>  <target_type>
SINGLE PROTEIN

$$$$

  Mrv0541 08052111042D          

 40 45  0  0  0  0            999 V2000
   10.2293    2.9548    0.0000 N   0  0  0  0  0  0  0  0  0  0  0  0
    9.5148    3.3673    0.0000 C   0  0  0  0  0  0  0  0  0  0  0  0
    9.5148    4.1923    0.0000 N   0  0  0  0  0  0  0  0  0  0  0  0
    8.8003    2.9548    0.0000 C   0  0  0  0  0  0  0  0  0  0  0  0
    8.8003    2.1298    0.0000 C   0  0  0  0  0  0  0  0  0  0  0  0
    8.0859    1.7173    0.0000 C   0  0  0  0  0  0  0  0  0  0  0  0
    7.3714    2.1298    0.0000 C   0  0  0  0  0  0  0  0  0  0  0  0
    6.5868    1.8748    0.0000 N   0  0  0  0  0  0  0  0  0  0  0  0
    6.1019    2.5423    0.0000 C   0  0  0  0  0  0  0  0  0  0  0  0
    6.5868    3.2097    0.0000 C   0  0  0  0  0  0  0  0  0  0  0  0
    6.3318    3.9943    0.0000 C   0  0  0  0  0  0  0  0  0  0  0  0
    5.5249    4.1659    0.0000 C   0  0  0  0  0  0  0  0  0  0  0  0
    4.9728    3.5528    0.0000 C   0  0  0  0  0  0  0  0  0  0  0  0
    4.1659    3.7243    0.0000 C   0  0  0  0  0  0  0  0  0  0  0  0
    3.6138    3.1112    0.0000 C   0  0  0  0  0  0  0  0  0  0  0  0
    2.8069    3.2827    0.0000 C   0  0  0  0  0  0  0  0  0  0  0  0
    2.5519    4.0674    0.0000 C   0  0  0  0  0  0  0  0  0  0  0  0
    3.1039    4.6805    0.0000 C   0  0  0  0  0  0  0  0  0  0  0  0
    3.9109    4.5089    0.0000 C   0  0  0  0  0  0  0  0  0  0  0  0
    6.8839    4.6074    0.0000 C   0  0  0  0  0  0  0  0  0  0  0  0
    7.6908    4.4359    0.0000 O   0  0  0  0  0  0  0  0  0  0  0  0
    6.6289    5.3921    0.0000 N   0  0  0  0  0  0  0  0  0  0  0  0
    7.1810    6.0052    0.0000 C   0  0  0  0  0  0  0  0  0  0  0  0
    6.9260    6.7898    0.0000 C   0  0  0  0  0  0  0  0  0  0  0  0
    7.4781    7.4029    0.0000 C   0  0  0  0  0  0  0  0  0  0  0  0
    8.2850    7.2313    0.0000 C   0  0  0  0  0  0  0  0  0  0  0  0
    8.8371    7.8444    0.0000 N   0  0  0  0  0  0  0  0  0  0  0  0
    8.6655    8.6514    0.0000 C   0  0  0  0  0  0  0  0  0  0  0  0
    9.3800    9.0639    0.0000 N   0  0  0  0  0  0  0  0  0  0  0  0
    9.9931    8.5119    0.0000 C   0  0  0  0  0  0  0  0  0  0  0  0
   10.8136    8.5981    0.0000 C   0  0  0  0  0  0  0  0  0  0  0  0
   11.2985    7.9307    0.0000 C   0  0  0  0  0  0  0  0  0  0  0  0
   10.9629    7.1770    0.0000 C   0  0  0  0  0  0  0  0  0  0  0  0
   10.1425    7.0908    0.0000 C   0  0  0  0  0  0  0  0  0  0  0  0
    9.6575    7.7582    0.0000 C   0  0  0  0  0  0  0  0  0  0  0  0
    8.5400    6.4467    0.0000 C   0  0  0  0  0  0  0  0  0  0  0  0
    7.9879    5.8336    0.0000 C   0  0  0  0  0  0  0  0  0  0  0  0
    8.2429    5.0490    0.0000 F   0  0  0  0  0  0  0  0  0  0  0  0
    7.3714    2.9548    0.0000 C   0  0  0  0  0  0  0  0  0  0  0  0
    8.0859    3.3673    0.0000 C   0  0  0  0  0  0  0  0  0  0  0  0
  1  2  2  0  0  0  0
  2  3  1  0  0  0  0
  2  4  1  0  0  0  0
  4  5  4  0  0  0  0
  5  6  4  0  0  0  0
  6  7  4  0  0  0  0
  7  8  4  0  0  0  0
  8  9  4  0  0  0  0
  9 10  4  0  0  0  0
 10 11  1  0  0  0  0
 11 12  1  0  0  0  0
 12 13  1  0  0  0  0
 13 14  1  0  0  0  0
 14 15  4  0  0  0  0
 15 16  4  0  0  0  0
 16 17  4  0  0  0  0
 17 18  4  0  0  0  0
 18 19  4  0  0  0  0
 14 19  4  0  0  0  0
 11 20  1  0  0  0  0
 20 21  2  0  0  0  0
 20 22  1  0  0  0  0
 22 23  1  0  0  0  0
 23 24  4  0  0  0  0
 24 25  4  0  0  0  0
 25 26  4  0  0  0  0
 26 27  1  0  0  0  0
 27 28  4  0  0  0  0
 28 29  4  0  0  0  0
 29 30  4  0  0  0  0
 30 31  4  0  0  0  0
 31 32  4  0  0  0  0
 32 33  4  0  0  0  0
 33 34  4  0  0  0  0
 34 35  4  0  0  0  0
 30 35  4  0  0  0  0
 27 35  4  0  0  0  0
 26 36  4  0  0  0  0
 36 37  4  0  0  0  0
 23 37  4  0  0  0  0
 37 38  1  0  0  0  0
 10 39  4  0  0  0  0
  7 39  4  0  0  0  0
 39 40  4  0  0  0  0
  4 40  4  0  0  0  0
M  STY  1   1 DAT
M  SAL   1  1   8
M  SDT   1 MRV_IMPLICIT_H                                        
M  SDD   1     0.0000    0.0000    DR    ALL  0       0  
M  SED   1 IMPL_H1
M  END
>  <CdId>
358777

>  <Mol Weight>
530.5948

>  <Formula>
C32H27FN6O

>  <cmpd_chemblid>
CHEMBL186076

>  <std_type>
Ki

>  <std_value>
240.0

>  <std_unit>
nM

>  <target_id>
CHEMBL2016

>  <target_name>
Coagulation factor IX

>  <organism>
Homo sapiens

>  <target_type>
SINGLE PROTEIN

$$$$

  Mrv0541 08052111042D          

 41 45  0  0  1  0            999 V2000
    1.4289   -2.4750    0.0000 N   0  0  0  0  0  0  0  0  0  0  0  0
    1.4289   -1.6500    0.0000 C   0  0  0  0  0  0  0  0  0  0  0  0
    0.7145   -1.2375    0.0000 N   0  0  0  0  0  0  0  0  0  0  0  0
    0.7145   -0.4125    0.0000 C   0  0  0  0  0  0  0  0  0  0  0  0
    1.4289    0.0000    0.0000 C   0  0  0  0  0  0  0  0  0  0  0  0
    2.1434   -0.4125    0.0000 C   0  0  0  0  0  0  0  0  0  0  0  0
    2.8579    0.0000    0.0000 C   0  0  0  0  0  0  0  0  0  0  0  0
    3.5724   -0.4125    0.0000 C   0  0  0  0  0  0  0  0  0  0  0  0
    4.2868   -0.0000    0.0000 C   0  0  0  0  0  0  0  0  0  0  0  0
    4.2868    0.8250    0.0000 C   0  0  2  0  0  0  0  0  0  0  0  0
    3.5724    1.2375    0.0000 C   0  0  0  0  0  0  0  0  0  0  0  0
    2.8579    0.8250    0.0000 O   0  0  0  0  0  0  0  0  0  0  0  0
    3.5724    2.0625    0.0000 O   0  0  0  0  0  0  0  0  0  0  0  0
    5.0013    1.2375    0.0000 N   0  0  0  0  0  0  0  0  0  0  0  0
    5.0875    2.0580    0.0000 C   0  0  0  0  0  0  0  0  0  0  0  0
    5.8945    2.2295    0.0000 C   0  0  0  0  0  0  0  0  0  0  0  0
    6.3070    1.5150    0.0000 C   0  0  2  0  0  0  0  0  0  0  0  0
    7.1275    1.4288    0.0000 N   0  0  0  0  0  0  0  0  0  0  0  0
    7.6124    2.0962    0.0000 S   0  0  0  0  0  0  0  0  0  0  0  0
    8.2798    1.6113    0.0000 O   0  0  0  0  0  0  0  0  0  0  0  0
    6.9450    2.5812    0.0000 O   0  0  0  0  0  0  0  0  0  0  0  0
    8.0973    2.7637    0.0000 C   0  0  0  0  0  0  0  0  0  0  0  0
    7.8424    3.5483    0.0000 C   0  0  0  0  0  0  0  0  0  0  0  0
    8.5098    4.0332    0.0000 N   0  0  0  0  0  0  0  0  0  0  0  0
    9.1773    3.5483    0.0000 C   0  0  0  0  0  0  0  0  0  0  0  0
    9.9619    3.8032    0.0000 N   0  0  0  0  0  0  0  0  0  0  0  0
   10.2168    4.5879    0.0000 C   0  0  0  0  0  0  0  0  0  0  0  0
   11.0418    4.5879    0.0000 C   0  0  0  0  0  0  0  0  0  0  0  0
   11.2968    3.8032    0.0000 C   0  0  0  0  0  0  0  0  0  0  0  0
   10.6293    3.3183    0.0000 C   0  0  0  0  0  0  0  0  0  0  0  0
    8.9223    2.7637    0.0000 S   0  0  0  0  0  0  0  0  0  0  0  0
    5.7550    0.9019    0.0000 C   0  0  0  0  0  0  0  0  0  0  0  0
    5.9265    0.0950    0.0000 O   0  0  0  0  0  0  0  0  0  0  0  0
    3.5724   -1.2375    0.0000 C   0  0  0  0  0  0  0  0  0  0  0  0
    4.2868   -1.6500    0.0000 O   0  0  0  0  0  0  0  0  0  0  0  0
    4.2868   -2.4750    0.0000 C   0  0  0  0  0  0  0  0  0  0  0  0
    3.4618   -2.4750    0.0000 F   0  0  0  0  0  0  0  0  0  0  0  0
    5.1118   -2.4750    0.0000 F   0  0  0  0  0  0  0  0  0  0  0  0
    4.2868   -3.3000    0.0000 F   0  0  0  0  0  0  0  0  0  0  0  0
    2.8579   -1.6500    0.0000 C   0  0  0  0  0  0  0  0  0  0  0  0
    2.1434   -1.2375    0.0000 C   0  0  0  0  0  0  0  0  0  0  0  0
  1  2  1  0  0  0  0
  2  3  4  0  0  0  0
  3  4  4  0  0  0  0
  4  5  4  0  0  0  0
  5  6  4  0  0  0  0
  6  7  4  0  0  0  0
  7  8  4  0  0  0  0
  8  9  1  0  0  0  0
  9 10  1  0  0  0  0
 10 11  1  0  0  0  0
 11 12  2  0  0  0  0
 11 13  1  0  0  0  0
 10 14  1  6  0  0  0
 14 15  1  0  0  0  0
 15 16  1  0  0  0  0
 16 17  1  0  0  0  0
 17 18  1  6  0  0  0
 18 19  1  0  0  0  0
 19 20  2  0  0  0  0
 19 21  2  0  0  0  0
 19 22  1  0  0  0  0
 22 23  4  0  0  0  0
 23 24  4  0  0  0  0
 24 25  4  0  0  0  0
 25 26  1  0  0  0  0
 26 27  1  0  0  0  0
 27 28  1  0  0  0  0
 28 29  1  0  0  0  0
 29 30  1  0  0  0  0
 26 30  1  0  0  0  0
 25 31  4  0  0  0  0
 22 31  4  0  0  0  0
 17 32  1  0  0  0  0
 14 32  1  0  0  0  0
 32 33  2  0  0  0  0
  8 34  4  0  0  0  0
 34 35  1  0  0  0  0
 35 36  1  0  0  0  0
 36 37  1  0  0  0  0
 36 38  1  0  0  0  0
 36 39  1  0  0  0  0
 34 40  4  0  0  0  0
 40 41  4  0  0  0  0
  2 41  4  0  0  0  0
  6 41  4  0  0  0  0
M  END
>  <CdId>
358778

>  <Mol Weight>
614.617

>  <Formula>
C24H25F3N6O6S2

>  <cmpd_chemblid>
CHEMBL3954879

>  <std_type>
Ki

>  <std_value>
41.5

>  <std_unit>
nM

>  <target_id>
CHEMBL2016

>  <target_name>
Coagulation factor IX

>  <organism>
Homo sapiens

>  <target_type>
SINGLE PROTEIN

$$$$

  Mrv0541 08052111042D          

 39 45  0  0  1  0            999 V2000
    4.7674    0.7556    0.0000 C   0  0  0  0  0  0  0  0  0  0  0  0
    3.9604    0.5840    0.0000 C   0  0  0  0  0  0  0  0  0  0  0  0
    3.7054   -0.2006    0.0000 C   0  0  0  0  0  0  0  0  0  0  0  0
    2.8985   -0.3721    0.0000 C   0  0  0  0  0  0  0  0  0  0  0  0
    2.3464    0.2410    0.0000 C   0  0  0  0  0  0  0  0  0  0  0  0
    2.6014    1.0256    0.0000 C   0  0  0  0  0  0  0  0  0  0  0  0
    3.4084    1.1971    0.0000 C   0  0  0  0  0  0  0  0  0  0  0  0
    1.9339    1.5105    0.0000 C   0  0  0  0  0  0  0  0  0  0  0  0
    1.9339    2.3355    0.0000 C   0  0  0  0  0  0  0  0  0  0  0  0
    1.5214    3.0500    0.0000 C   0  0  0  0  0  0  0  0  0  0  0  0
    2.3464    3.0500    0.0000 C   0  0  0  0  0  0  0  0  0  0  0  0
    1.2665    1.0256    0.0000 C   0  0  0  0  0  0  0  0  0  0  0  0
    1.5214    0.2410    0.0000 N   0  0  0  0  0  0  0  0  0  0  0  0
    0.9694   -0.3721    0.0000 C   0  0  0  0  0  0  0  0  0  0  0  0
    0.1624   -0.2006    0.0000 C   0  0  1  0  0  0  0  0  0  0  0  0
    0.1336   -1.0251    0.0000 N   0  0  0  0  0  0  0  0  0  0  0  0
    0.8333   -1.4623    0.0000 C   0  0  0  0  0  0  0  0  0  0  0  0
    1.5617   -1.0750    0.0000 O   0  0  0  0  0  0  0  0  0  0  0  0
    0.8045   -2.2868    0.0000 C   0  0  0  0  0  0  0  0  0  0  0  0
    1.5041   -2.7240    0.0000 C   0  0  0  0  0  0  0  0  0  0  0  0
    2.2326   -2.3366    0.0000 Cl  0  0  0  0  0  0  0  0  0  0  0  0
    1.4753   -3.5485    0.0000 C   0  0  0  0  0  0  0  0  0  0  0  0
    0.7469   -3.9358    0.0000 C   0  0  0  0  0  0  0  0  0  0  0  0
    0.7181   -4.7603    0.0000 N   0  0  0  0  0  0  0  0  0  0  0  0
    1.3682   -5.2682    0.0000 C   0  0  0  0  0  0  0  0  0  0  0  0
    1.0861   -6.0434    0.0000 N   0  0  0  0  0  0  0  0  0  0  0  0
    0.2616   -6.0146    0.0000 N   0  0  0  0  0  0  0  0  0  0  0  0
    0.0342   -5.2216    0.0000 C   0  0  0  0  0  0  0  0  0  0  0  0
    0.0473   -3.4986    0.0000 C   0  0  0  0  0  0  0  0  0  0  0  0
    0.0761   -2.6741    0.0000 C   0  0  0  0  0  0  0  0  0  0  0  0
   -0.6236   -2.2369    0.0000 Cl  0  0  0  0  0  0  0  0  0  0  0  0
   -0.6545   -0.3154    0.0000 C   0  0  0  0  0  0  0  0  0  0  0  0
   -0.9636   -1.0803    0.0000 C   0  0  0  0  0  0  0  0  0  0  0  0
   -1.7806   -1.1952    0.0000 C   0  0  0  0  0  0  0  0  0  0  0  0
   -2.2885   -0.5450    0.0000 C   0  0  0  0  0  0  0  0  0  0  0  0
   -1.9794    0.2199    0.0000 C   0  0  0  0  0  0  0  0  0  0  0  0
   -1.1625    0.3347    0.0000 C   0  0  0  0  0  0  0  0  0  0  0  0
   -0.0925    0.5840    0.0000 C   0  0  0  0  0  0  0  0  0  0  0  0
    0.4595    1.1971    0.0000 C   0  0  0  0  0  0  0  0  0  0  0  0
  1  2  1  0  0  0  0
  2  3  4  0  0  0  0
  3  4  4  0  0  0  0
  4  5  4  0  0  0  0
  5  6  4  0  0  0  0
  6  7  4  0  0  0  0
  2  7  4  0  0  0  0
  6  8  4  0  0  0  0
  8  9  1  0  0  0  0
  9 10  1  0  0  0  0
 10 11  1  0  0  0  0
  9 11  1  0  0  0  0
  8 12  4  0  0  0  0
 12 13  4  0  0  0  0
  5 13  4  0  0  0  0
 13 14  1  0  0  0  0
 14 15  1  0  0  0  0
 15 16  1  6  0  0  0
 16 17  1  0  0  0  0
 17 18  2  0  0  0  0
 17 19  1  0  0  0  0
 19 20  4  0  0  0  0
 20 21  1  0  0  0  0
 20 22  4  0  0  0  0
 22 23  4  0  0  0  0
 23 24  1  0  0  0  0
 24 25  4  0  0  0  0
 25 26  4  0  0  0  0
 26 27  4  0  0  0  0
 27 28  4  0  0  0  0
 24 28  4  0  0  0  0
 23 29  4  0  0  0  0
 29 30  4  0  0  0  0
 19 30  4  0  0  0  0
 30 31  1  0  0  0  0
 15 32  1  1  0  0  0
 32 33  4  0  0  0  0
 33 34  4  0  0  0  0
 34 35  4  0  0  0  0
 35 36  4  0  0  0  0
 36 37  4  0  0  0  0
 32 37  4  0  0  0  0
 15 38  1  0  0  0  0
 38 39  1  0  0  0  0
 12 39  1  0  0  0  0
M  END
>  <CdId>
358780

>  <Mol Weight>
556.485

>  <Formula>
C31H27Cl2N5O

>  <cmpd_chemblid>
CHEMBL3628958

>  <std_type>
Ki

>  <std_value>
8.0

>  <std_unit>
nM

>  <target_id>
CHEMBL2016

>  <target_name>
Coagulation factor IX

>  <organism>
Homo sapiens

>  <target_type>
SINGLE PROTEIN

$$$$

  Mrv0541 08052111042D          

 24 26  0  0  0  0            999 V2000
   -0.7145   -3.7125    0.0000 C   0  0  0  0  0  0  0  0  0  0  0  0
    0.0000   -3.3000    0.0000 O   0  0  0  0  0  0  0  0  0  0  0  0
    0.0000   -2.4750    0.0000 C   0  0  0  0  0  0  0  0  0  0  0  0
   -0.7145   -2.0625    0.0000 O   0  0  0  0  0  0  0  0  0  0  0  0
    0.7145   -2.0625    0.0000 C   0  0  0  0  0  0  0  0  0  0  0  0
    1.4289   -2.4750    0.0000 O   0  0  0  0  0  0  0  0  0  0  0  0
    2.1434   -2.0625    0.0000 C   0  0  0  0  0  0  0  0  0  0  0  0
    2.1434   -1.2375    0.0000 C   0  0  0  0  0  0  0  0  0  0  0  0
    2.8579   -0.8250    0.0000 C   0  0  0  0  0  0  0  0  0  0  0  0
    3.5724   -1.2375    0.0000 C   0  0  0  0  0  0  0  0  0  0  0  0
    3.5724   -2.0625    0.0000 C   0  0  0  0  0  0  0  0  0  0  0  0
    4.1854   -2.6145    0.0000 S   0  0  0  0  0  0  0  0  0  0  0  0
    3.8499   -3.3682    0.0000 C   0  0  0  0  0  0  0  0  0  0  0  0
    4.2624   -4.0827    0.0000 C   0  0  0  0  0  0  0  0  0  0  0  0
    5.0874   -4.0827    0.0000 N   0  0  0  0  0  0  0  0  0  0  0  0
    3.8499   -4.7971    0.0000 N   0  0  0  0  0  0  0  0  0  0  0  0
    3.0294   -3.2820    0.0000 C   0  0  0  0  0  0  0  0  0  0  0  0
    2.8579   -2.4750    0.0000 C   0  0  0  0  0  0  0  0  0  0  0  0
    0.7145   -1.2375    0.0000 C   0  0  0  0  0  0  0  0  0  0  0  0
    0.0000   -0.8250    0.0000 C   0  0  0  0  0  0  0  0  0  0  0  0
    0.0000    0.0000    0.0000 C   0  0  0  0  0  0  0  0  0  0  0  0
    0.7145    0.4125    0.0000 C   0  0  0  0  0  0  0  0  0  0  0  0
    1.4289   -0.0000    0.0000 C   0  0  0  0  0  0  0  0  0  0  0  0
    1.4289   -0.8250    0.0000 C   0  0  0  0  0  0  0  0  0  0  0  0
  1  2  1  0  0  0  0
  2  3  1  0  0  0  0
  3  4  2  0  0  0  0
  3  5  1  0  0  0  0
  5  6  1  0  0  0  0
  6  7  1  0  0  0  0
  7  8  4  0  0  0  0
  8  9  4  0  0  0  0
  9 10  4  0  0  0  0
 10 11  4  0  0  0  0
 11 12  4  0  0  0  0
 12 13  4  0  0  0  0
 13 14  1  0  0  0  0
 14 15  2  0  0  0  0
 14 16  1  0  0  0  0
 13 17  4  0  0  0  0
 17 18  4  0  0  0  0
  7 18  4  0  0  0  0
 11 18  4  0  0  0  0
  5 19  1  0  0  0  0
 19 20  4  0  0  0  0
 20 21  4  0  0  0  0
 21 22  4  0  0  0  0
 22 23  4  0  0  0  0
 23 24  4  0  0  0  0
 19 24  4  0  0  0  0
M  END
>  <CdId>
358783

>  <Mol Weight>
340.396

>  <Formula>
C18H16N2O3S

>  <cmpd_chemblid>
CHEMBL609911

>  <std_type>
Ki

>  <std_value>
500.0

>  <std_unit>
nM

>  <target_id>
CHEMBL2016

>  <target_name>
Coagulation factor IX

>  <organism>
Homo sapiens

>  <target_type>
SINGLE PROTEIN

$$$$

  Mrv0541 08052111042D          

 40 43  0  0  1  0            999 V2000
    0.7145   -2.8875    0.0000 C   0  0  0  0  0  0  0  0  0  0  0  0
    1.4289   -2.4750    0.0000 O   0  0  0  0  0  0  0  0  0  0  0  0
    1.4289   -1.6500    0.0000 C   0  0  0  0  0  0  0  0  0  0  0  0
    0.7145   -1.2375    0.0000 C   0  0  0  0  0  0  0  0  0  0  0  0
    0.7145   -0.4125    0.0000 C   0  0  0  0  0  0  0  0  0  0  0  0
    0.0000    0.0000    0.0000 C   0  0  0  0  0  0  0  0  0  0  0  0
   -0.7145   -0.4125    0.0000 N   0  0  0  0  0  0  0  0  0  0  0  0
    0.0000    0.8250    0.0000 N   0  0  0  0  0  0  0  0  0  0  0  0
    0.7145    1.2375    0.0000 C   0  0  0  0  0  0  0  0  0  0  0  0
    1.4289    0.8250    0.0000 C   0  0  0  0  0  0  0  0  0  0  0  0
    1.4289    0.0000    0.0000 C   0  0  0  0  0  0  0  0  0  0  0  0
    2.1434   -0.4125    0.0000 C   0  0  0  0  0  0  0  0  0  0  0  0
    2.1434   -1.2375    0.0000 C   0  0  0  0  0  0  0  0  0  0  0  0
    2.8579   -1.6500    0.0000 C   0  0  0  0  0  0  0  0  0  0  0  0
    3.5724   -1.2375    0.0000 C   0  0  2  0  0  0  0  0  0  0  0  0
    4.2868   -1.6500    0.0000 C   0  0  0  0  0  0  0  0  0  0  0  0
    4.2868   -2.4750    0.0000 O   0  0  0  0  0  0  0  0  0  0  0  0
    5.0013   -1.2375    0.0000 O   0  0  0  0  0  0  0  0  0  0  0  0
    5.7158   -1.6500    0.0000 C   0  0  0  0  0  0  0  0  0  0  0  0
    6.4302   -1.2375    0.0000 C   0  0  0  0  0  0  0  0  0  0  0  0
    6.4302   -0.4125    0.0000 C   0  0  0  0  0  0  0  0  0  0  0  0
    7.1447   -1.6500    0.0000 C   0  0  0  0  0  0  0  0  0  0  0  0
    3.5724   -0.4125    0.0000 N   0  0  0  0  0  0  0  0  0  0  0  0
    2.9049    0.0724    0.0000 C   0  0  0  0  0  0  0  0  0  0  0  0
    3.1599    0.8570    0.0000 C   0  0  0  0  0  0  0  0  0  0  0  0
    3.9849    0.8570    0.0000 C   0  0  2  0  0  0  0  0  0  0  0  0
    4.4698    1.5245    0.0000 N   0  0  0  0  0  0  0  0  0  0  0  0
    4.1342    2.2782    0.0000 S   0  0  0  0  0  0  0  0  0  0  0  0
    4.8879    2.6137    0.0000 O   0  0  0  0  0  0  0  0  0  0  0  0
    3.3805    1.9426    0.0000 O   0  0  0  0  0  0  0  0  0  0  0  0
    3.7987    3.0318    0.0000 C   0  0  0  0  0  0  0  0  0  0  0  0
    2.9917    3.2034    0.0000 C   0  0  0  0  0  0  0  0  0  0  0  0
    2.9055    4.0238    0.0000 N   0  0  0  0  0  0  0  0  0  0  0  0
    3.6591    4.3594    0.0000 C   0  0  0  0  0  0  0  0  0  0  0  0
    3.8307    5.1664    0.0000 N   0  0  0  0  0  0  0  0  0  0  0  0
    3.2176    5.7184    0.0000 C   0  0  0  0  0  0  0  0  0  0  0  0
    4.6153    5.4213    0.0000 C   0  0  0  0  0  0  0  0  0  0  0  0
    4.2112    3.7463    0.0000 S   0  0  0  0  0  0  0  0  0  0  0  0
    4.2398    0.0724    0.0000 C   0  0  0  0  0  0  0  0  0  0  0  0
    5.0244   -0.1825    0.0000 O   0  0  0  0  0  0  0  0  0  0  0  0
  1  2  1  0  0  0  0
  2  3  1  0  0  0  0
  3  4  4  0  0  0  0
  4  5  4  0  0  0  0
  5  6  4  0  0  0  0
  6  7  1  0  0  0  0
  6  8  4  0  0  0  0
  8  9  4  0  0  0  0
  9 10  4  0  0  0  0
 10 11  4  0  0  0  0
  5 11  4  0  0  0  0
 11 12  4  0  0  0  0
 12 13  4  0  0  0  0
  3 13  4  0  0  0  0
 13 14  1  0  0  0  0
 14 15  1  0  0  0  0
 15 16  1  0  0  0  0
 16 17  2  0  0  0  0
 16 18  1  0  0  0  0
 18 19  1  0  0  0  0
 19 20  1  0  0  0  0
 20 21  1  0  0  0  0
 20 22  1  0  0  0  0
 15 23  1  1  0  0  0
 23 24  1  0  0  0  0
 24 25  1  0  0  0  0
 25 26  1  0  0  0  0
 26 27  1  6  0  0  0
 27 28  1  0  0  0  0
 28 29  2  0  0  0  0
 28 30  2  0  0  0  0
 28 31  1  0  0  0  0
 31 32  4  0  0  0  0
 32 33  4  0  0  0  0
 33 34  4  0  0  0  0
 34 35  1  0  0  0  0
 35 36  1  0  0  0  0
 35 37  1  0  0  0  0
 34 38  4  0  0  0  0
 31 38  4  0  0  0  0
 26 39  1  0  0  0  0
 23 39  1  0  0  0  0
 39 40  2  0  0  0  0
M  END
>  <CdId>
358784

>  <Mol Weight>
590.715

>  <Formula>
C26H34N6O6S2

>  <cmpd_chemblid>
CHEMBL3975197

>  <std_type>
Ki

>  <std_value>
800.0

>  <std_unit>
nM

>  <target_id>
CHEMBL2016

>  <target_name>
Coagulation factor IX

>  <organism>
Homo sapiens

>  <target_type>
SINGLE PROTEIN

$$$$

  Mrv0541 08052111042D          

 42 46  0  0  1  0            999 V2000
    7.9579   -3.3953    0.0000 C   0  0  0  0  0  0  0  0  0  0  0  0
    7.5249   -2.6931    0.0000 O   0  0  0  0  0  0  0  0  0  0  0  0
    6.7002   -2.7170    0.0000 C   0  0  0  0  0  0  0  0  0  0  0  0
    6.3086   -3.4431    0.0000 O   0  0  0  0  0  0  0  0  0  0  0  0
    6.2672   -2.0147    0.0000 N   0  0  0  0  0  0  0  0  0  0  0  0
    5.4425   -2.0386    0.0000 C   0  0  0  0  0  0  0  0  0  0  0  0
    5.0095   -1.3364    0.0000 C   0  0  0  0  0  0  0  0  0  0  0  0
    4.1849   -1.3603    0.0000 C   0  0  0  0  0  0  0  0  0  0  0  0
    3.7932   -2.0864    0.0000 C   0  0  0  0  0  0  0  0  0  0  0  0
    4.2262   -2.7886    0.0000 C   0  0  0  0  0  0  0  0  0  0  0  0
    5.0509   -2.7647    0.0000 C   0  0  0  0  0  0  0  0  0  0  0  0
    5.0479   -3.1211    0.0000 N   0  0  0  0  0  0  0  0  0  0  0  0
    5.0360   -3.9460    0.0000 C   0  0  0  0  0  0  0  0  0  0  0  0
    5.6963   -4.4405    0.0000 O   0  0  0  0  0  0  0  0  0  0  0  0
    4.2478   -4.1895    0.0000 C   0  0  0  0  0  0  0  0  0  0  0  0
    3.7519   -4.9440    0.0000 C   0  0  0  0  0  0  0  0  0  0  0  0
    2.9270   -4.9320    0.0000 C   0  0  0  0  0  0  0  0  0  0  0  0
    2.5248   -4.2117    0.0000 C   0  0  0  0  0  0  0  0  0  0  0  0
    1.6999   -4.1997    0.0000 C   0  0  0  0  0  0  0  0  0  0  0  0
    1.2978   -3.4794    0.0000 C   0  0  2  0  0  0  0  0  0  0  0  0
    0.4729   -3.4674    0.0000 N   0  0  0  0  0  0  0  0  0  0  0  0
    0.0501   -4.1758    0.0000 C   0  0  0  0  0  0  0  0  0  0  0  0
   -0.7748   -4.1639    0.0000 C   0  0  0  0  0  0  0  0  0  0  0  0
   -1.1769   -3.4435    0.0000 C   0  0  0  0  0  0  0  0  0  0  0  0
   -2.0018   -3.4316    0.0000 C   0  0  0  0  0  0  0  0  0  0  0  0
   -2.4246   -4.1400    0.0000 C   0  0  0  0  0  0  0  0  0  0  0  0
   -2.0225   -4.8604    0.0000 F   0  0  0  0  0  0  0  0  0  0  0  0
   -3.2495   -4.1281    0.0000 C   0  0  0  0  0  0  0  0  0  0  0  0
   -3.6517   -3.4077    0.0000 C   0  0  0  0  0  0  0  0  0  0  0  0
   -3.2289   -2.6993    0.0000 C   0  0  0  0  0  0  0  0  0  0  0  0
   -3.6310   -1.9789    0.0000 Cl  0  0  0  0  0  0  0  0  0  0  0  0
   -2.4040   -2.7112    0.0000 C   0  0  0  0  0  0  0  0  0  0  0  0
   -1.9812   -2.0028    0.0000 F   0  0  0  0  0  0  0  0  0  0  0  0
   -0.7541   -2.7351    0.0000 C   0  0  0  0  0  0  0  0  0  0  0  0
    0.0708   -2.7470    0.0000 C   0  0  0  0  0  0  0  0  0  0  0  0
    0.4936   -2.0386    0.0000 O   0  0  0  0  0  0  0  0  0  0  0  0
    1.7206   -2.7709    0.0000 C   0  0  0  0  0  0  0  0  0  0  0  0
    2.5455   -2.7829    0.0000 C   0  0  0  0  0  0  0  0  0  0  0  0
    2.9683   -2.0744    0.0000 C   0  0  0  0  0  0  0  0  0  0  0  0
    2.5662   -1.3541    0.0000 C   0  0  0  0  0  0  0  0  0  0  0  0
    1.7413   -1.3421    0.0000 C   0  0  0  0  0  0  0  0  0  0  0  0
    1.3185   -2.0506    0.0000 N   0  0  0  0  0  0  0  0  0  0  0  0
  1  2  1  0  0  0  0
  2  3  1  0  0  0  0
  3  4  2  0  0  0  0
  3  5  1  0  0  0  0
  5  6  1  0  0  0  0
  6  7  4  0  0  0  0
  7  8  4  0  0  0  0
  8  9  4  0  0  0  0
  9 10  4  0  0  0  0
 10 11  4  0  0  0  0
  6 11  4  0  0  0  0
 10 12  1  0  0  0  0
 12 13  1  0  0  0  0
 13 14  2  0  0  0  0
 13 15  1  0  0  0  0
 15 16  1  0  0  0  0
 16 17  1  0  0  0  0
 17 18  1  0  0  0  0
 18 19  1  0  0  0  0
 19 20  1  0  0  0  0
 20 21  1  6  0  0  0
 21 22  1  0  0  0  0
 22 23  1  0  0  0  0
 23 24  1  0  0  0  0
 24 25  1  0  0  0  0
 25 26  4  0  0  0  0
 26 27  1  0  0  0  0
 26 28  4  0  0  0  0
 28 29  4  0  0  0  0
 29 30  4  0  0  0  0
 30 31  1  0  0  0  0
 30 32  4  0  0  0  0
 25 32  4  0  0  0  0
 32 33  1  0  0  0  0
 24 34  2  0  0  0  0
 34 35  1  0  0  0  0
 21 35  1  0  0  0  0
 35 36  2  0  0  0  0
 20 37  1  0  0  0  0
 37 38  4  0  0  0  0
 38 39  4  0  0  0  0
  9 39  1  0  0  0  0
 39 40  4  0  0  0  0
 40 41  4  0  0  0  0
 41 42  4  0  0  0  0
 37 42  4  0  0  0  0
M  END
>  <CdId>
358786

>  <Mol Weight>
595.036

>  <Formula>
C31H29ClF2N4O4

>  <cmpd_chemblid>
CHEMBL3921526

>  <std_type>
Ki

>  <std_value>
6.61

>  <std_unit>
nM

>  <target_id>
CHEMBL2016

>  <target_name>
Coagulation factor IX

>  <organism>
Homo sapiens

>  <target_type>
SINGLE PROTEIN

$$$$

  Mrv0541 08052111042D          

 39 43  0  0  1  0            999 V2000
    3.9849    3.9849    0.0000 C   0  0  0  0  0  0  0  0  0  0  0  0
    4.3974    3.2704    0.0000 C   0  0  2  0  0  0  0  0  0  0  0  0
    5.2224    3.2704    0.0000 C   0  0  0  0  0  0  0  0  0  0  0  0
    5.6349    2.5559    0.0000 C   0  0  0  0  0  0  0  0  0  0  0  0
    6.4599    2.5559    0.0000 C   0  0  0  0  0  0  0  0  0  0  0  0
    6.8724    1.8414    0.0000 C   0  0  2  0  0  0  0  0  0  0  0  0
    7.6974    1.8414    0.0000 N   0  0  0  0  0  0  0  0  0  0  0  0
    8.1099    2.5559    0.0000 C   0  0  0  0  0  0  0  0  0  0  0  0
    8.9349    2.5559    0.0000 C   0  0  0  0  0  0  0  0  0  0  0  0
    9.3474    1.8414    0.0000 C   0  0  0  0  0  0  0  0  0  0  0  0
   10.1724    1.8414    0.0000 C   0  0  0  0  0  0  0  0  0  0  0  0
   10.5849    2.5559    0.0000 C   0  0  0  0  0  0  0  0  0  0  0  0
   10.1724    3.2704    0.0000 F   0  0  0  0  0  0  0  0  0  0  0  0
   11.4099    2.5559    0.0000 C   0  0  0  0  0  0  0  0  0  0  0  0
   11.8224    1.8414    0.0000 C   0  0  0  0  0  0  0  0  0  0  0  0
   11.4099    1.1270    0.0000 C   0  0  0  0  0  0  0  0  0  0  0  0
   11.8224    0.4125    0.0000 Cl  0  0  0  0  0  0  0  0  0  0  0  0
   10.5849    1.1270    0.0000 C   0  0  0  0  0  0  0  0  0  0  0  0
   10.1724    0.4125    0.0000 F   0  0  0  0  0  0  0  0  0  0  0  0
    8.9349    1.1270    0.0000 C   0  0  0  0  0  0  0  0  0  0  0  0
    8.1099    1.1270    0.0000 C   0  0  0  0  0  0  0  0  0  0  0  0
    7.6974    0.4125    0.0000 O   0  0  0  0  0  0  0  0  0  0  0  0
    6.4599    1.1270    0.0000 C   0  0  0  0  0  0  0  0  0  0  0  0
    5.6349    1.1270    0.0000 C   0  0  0  0  0  0  0  0  0  0  0  0
    5.2224    0.4125    0.0000 C   0  0  0  0  0  0  0  0  0  0  0  0
    5.6349   -0.3020    0.0000 C   0  0  0  0  0  0  0  0  0  0  0  0
    6.4599   -0.3020    0.0000 C   0  0  0  0  0  0  0  0  0  0  0  0
    6.8724    0.4125    0.0000 N   0  0  0  0  0  0  0  0  0  0  0  0
    4.3974    0.4125    0.0000 C   0  0  0  0  0  0  0  0  0  0  0  0
    3.9849   -0.3020    0.0000 C   0  0  0  0  0  0  0  0  0  0  0  0
    3.1599   -0.3020    0.0000 C   0  0  0  0  0  0  0  0  0  0  0  0
    2.7474   -1.0164    0.0000 F   0  0  0  0  0  0  0  0  0  0  0  0
    2.7474    0.4125    0.0000 C   0  0  0  0  0  0  0  0  0  0  0  0
    1.9224    0.4125    0.0000 N   0  0  0  0  0  0  0  0  0  0  0  0
    3.1599    1.1270    0.0000 C   0  0  0  0  0  0  0  0  0  0  0  0
    3.9849    1.1270    0.0000 C   0  0  0  0  0  0  0  0  0  0  0  0
    4.3974    1.8414    0.0000 N   0  0  0  0  0  0  0  0  0  0  0  0
    3.9849    2.5559    0.0000 C   0  0  0  0  0  0  0  0  0  0  0  0
    3.1599    2.5559    0.0000 O   0  0  0  0  0  0  0  0  0  0  0  0
  2  1  1  6  0  0  0
  2  3  1  0  0  0  0
  3  4  1  0  0  0  0
  4  5  1  0  0  0  0
  5  6  1  0  0  0  0
  6  7  1  6  0  0  0
  7  8  1  0  0  0  0
  8  9  1  0  0  0  0
  9 10  1  0  0  0  0
 10 11  1  0  0  0  0
 11 12  4  0  0  0  0
 12 13  1  0  0  0  0
 12 14  4  0  0  0  0
 14 15  4  0  0  0  0
 15 16  4  0  0  0  0
 16 17  1  0  0  0  0
 16 18  4  0  0  0  0
 11 18  4  0  0  0  0
 18 19  1  0  0  0  0
 10 20  2  0  0  0  0
 20 21  1  0  0  0  0
  7 21  1  0  0  0  0
 21 22  2  0  0  0  0
  6 23  1  0  0  0  0
 23 24  4  0  0  0  0
 24 25  4  0  0  0  0
 25 26  4  0  0  0  0
 26 27  4  0  0  0  0
 27 28  4  0  0  0  0
 23 28  4  0  0  0  0
 25 29  1  0  0  0  0
 29 30  4  0  0  0  0
 30 31  4  0  0  0  0
 31 32  1  0  0  0  0
 31 33  4  0  0  0  0
 33 34  1  0  0  0  0
 33 35  4  0  0  0  0
 35 36  4  0  0  0  0
 29 36  4  0  0  0  0
 36 37  1  0  0  0  0
 37 38  1  0  0  0  0
  2 38  1  0  0  0  0
 38 39  2  0  0  0  0
M  END
>  <CdId>
358788

>  <Mol Weight>
554.991

>  <Formula>
C29H26ClF3N4O2

>  <cmpd_chemblid>
CHEMBL4111951

>  <std_type>
Ki

>  <std_value>
1.31

>  <std_unit>
nM

>  <target_id>
CHEMBL2016

>  <target_name>
Coagulation factor IX

>  <organism>
Homo sapiens

>  <target_type>
SINGLE PROTEIN

$$$$

  Mrv0541 08052111042D          

 37 40  0  0  0  0            999 V2000
   -5.3487   -6.3843    0.0000 C   0  0  0  0  0  0  0  0  0  0  0  0
   -4.5282   -6.2981    0.0000 O   0  0  0  0  0  0  0  0  0  0  0  0
   -4.1927   -5.5444    0.0000 C   0  0  0  0  0  0  0  0  0  0  0  0
   -4.6776   -4.8770    0.0000 O   0  0  0  0  0  0  0  0  0  0  0  0
   -3.3722   -5.4582    0.0000 C   0  0  0  0  0  0  0  0  0  0  0  0
   -3.0366   -4.7045    0.0000 N   0  0  0  0  0  0  0  0  0  0  0  0
   -3.4491   -3.9900    0.0000 N   0  0  0  0  0  0  0  0  0  0  0  0
   -2.8971   -3.3769    0.0000 C   0  0  0  0  0  0  0  0  0  0  0  0
   -3.0686   -2.5700    0.0000 C   0  0  0  0  0  0  0  0  0  0  0  0
   -2.1434   -3.7125    0.0000 C   0  0  0  0  0  0  0  0  0  0  0  0
   -1.4289   -3.3000    0.0000 N   0  0  0  0  0  0  0  0  0  0  0  0
   -0.7145   -3.7125    0.0000 C   0  0  0  0  0  0  0  0  0  0  0  0
   -0.7145   -4.5375    0.0000 O   0  0  0  0  0  0  0  0  0  0  0  0
    0.0000   -3.3000    0.0000 O   0  0  0  0  0  0  0  0  0  0  0  0
    0.7145   -3.7125    0.0000 C   0  0  0  0  0  0  0  0  0  0  0  0
    1.4289   -3.3000    0.0000 C   0  0  0  0  0  0  0  0  0  0  0  0
    2.1434   -3.7125    0.0000 O   0  0  0  0  0  0  0  0  0  0  0  0
    2.8579   -3.3000    0.0000 C   0  0  0  0  0  0  0  0  0  0  0  0
    2.8579   -2.4750    0.0000 C   0  0  0  0  0  0  0  0  0  0  0  0
    3.5724   -2.0625    0.0000 C   0  0  0  0  0  0  0  0  0  0  0  0
    4.2868   -2.4750    0.0000 C   0  0  0  0  0  0  0  0  0  0  0  0
    4.2868   -3.3000    0.0000 C   0  0  0  0  0  0  0  0  0  0  0  0
    4.8999   -3.8520    0.0000 S   0  0  0  0  0  0  0  0  0  0  0  0
    4.5644   -4.6057    0.0000 C   0  0  0  0  0  0  0  0  0  0  0  0
    4.9769   -5.3202    0.0000 C   0  0  0  0  0  0  0  0  0  0  0  0
    5.8019   -5.3202    0.0000 N   0  0  0  0  0  0  0  0  0  0  0  0
    4.5644   -6.0346    0.0000 N   0  0  0  0  0  0  0  0  0  0  0  0
    3.7439   -4.5195    0.0000 C   0  0  0  0  0  0  0  0  0  0  0  0
    3.5724   -3.7125    0.0000 C   0  0  0  0  0  0  0  0  0  0  0  0
    1.4289   -2.4750    0.0000 C   0  0  0  0  0  0  0  0  0  0  0  0
    0.7145   -2.0625    0.0000 C   0  0  0  0  0  0  0  0  0  0  0  0
    0.7145   -1.2375    0.0000 C   0  0  0  0  0  0  0  0  0  0  0  0
    1.4289   -0.8250    0.0000 C   0  0  0  0  0  0  0  0  0  0  0  0
    2.1434   -1.2375    0.0000 C   0  0  0  0  0  0  0  0  0  0  0  0
    2.1434   -2.0625    0.0000 C   0  0  0  0  0  0  0  0  0  0  0  0
   -2.2296   -4.5330    0.0000 C   0  0  0  0  0  0  0  0  0  0  0  0
   -1.6166   -5.0850    0.0000 C   0  0  0  0  0  0  0  0  0  0  0  0
  1  2  1  0  0  0  0
  2  3  1  0  0  0  0
  3  4  2  0  0  0  0
  3  5  1  0  0  0  0
  5  6  1  0  0  0  0
  6  7  4  0  0  0  0
  7  8  4  0  0  0  0
  8  9  1  0  0  0  0
  8 10  4  0  0  0  0
 10 11  1  0  0  0  0
 11 12  1  0  0  0  0
 12 13  2  0  0  0  0
 12 14  1  0  0  0  0
 14 15  1  0  0  0  0
 15 16  1  0  0  0  0
 16 17  1  0  0  0  0
 17 18  1  0  0  0  0
 18 19  4  0  0  0  0
 19 20  4  0  0  0  0
 20 21  4  0  0  0  0
 21 22  4  0  0  0  0
 22 23  4  0  0  0  0
 23 24  4  0  0  0  0
 24 25  1  0  0  0  0
 25 26  2  0  0  0  0
 25 27  1  0  0  0  0
 24 28  4  0  0  0  0
 28 29  4  0  0  0  0
 18 29  4  0  0  0  0
 22 29  4  0  0  0  0
 16 30  1  0  0  0  0
 30 31  4  0  0  0  0
 31 32  4  0  0  0  0
 32 33  4  0  0  0  0
 33 34  4  0  0  0  0
 34 35  4  0  0  0  0
 30 35  4  0  0  0  0
 10 36  4  0  0  0  0
  6 36  4  0  0  0  0
 36 37  1  0  0  0  0
M  END
>  <CdId>
358789

>  <Mol Weight>
521.588

>  <Formula>
C26H27N5O5S

>  <cmpd_chemblid>
CHEMBL601231

>  <std_type>
Ki

>  <std_value>
11.0

>  <std_unit>
nM

>  <target_id>
CHEMBL2016

>  <target_name>
Coagulation factor IX

>  <organism>
Homo sapiens

>  <target_type>
SINGLE PROTEIN

$$$$

  Mrv0541 08052111042D          

 38 42  0  0  0  0            999 V2000
    4.2010   -5.1401    0.0000 N   0  0  0  0  0  0  0  0  0  0  0  0
    3.3760   -5.1401    0.0000 C   0  0  0  0  0  0  0  0  0  0  0  0
    2.9635   -4.4256    0.0000 N   0  0  0  0  0  0  0  0  0  0  0  0
    2.9635   -5.8546    0.0000 C   0  0  0  0  0  0  0  0  0  0  0  0
    3.3760   -6.5690    0.0000 C   0  0  0  0  0  0  0  0  0  0  0  0
    2.9635   -7.2835    0.0000 C   0  0  0  0  0  0  0  0  0  0  0  0
    2.1385   -7.2835    0.0000 C   0  0  0  0  0  0  0  0  0  0  0  0
    1.7260   -6.5690    0.0000 C   0  0  0  0  0  0  0  0  0  0  0  0
    0.9010   -6.5690    0.0000 N   0  0  0  0  0  0  0  0  0  0  0  0
    0.4161   -7.2365    0.0000 N   0  0  0  0  0  0  0  0  0  0  0  0
   -0.3686   -6.9815    0.0000 C   0  0  0  0  0  0  0  0  0  0  0  0
   -1.0360   -7.4664    0.0000 C   0  0  0  0  0  0  0  0  0  0  0  0
   -1.7034   -7.9514    0.0000 F   0  0  0  0  0  0  0  0  0  0  0  0
   -1.5209   -6.7990    0.0000 F   0  0  0  0  0  0  0  0  0  0  0  0
   -0.5511   -8.1339    0.0000 F   0  0  0  0  0  0  0  0  0  0  0  0
   -0.3686   -6.1565    0.0000 C   0  0  0  0  0  0  0  0  0  0  0  0
    0.4161   -5.9016    0.0000 C   0  0  0  0  0  0  0  0  0  0  0  0
    0.6710   -5.1170    0.0000 C   0  0  0  0  0  0  0  0  0  0  0  0
    1.4780   -4.9454    0.0000 O   0  0  0  0  0  0  0  0  0  0  0  0
    0.1190   -4.5039    0.0000 N   0  0  0  0  0  0  0  0  0  0  0  0
    0.3739   -3.7192    0.0000 C   0  0  0  0  0  0  0  0  0  0  0  0
   -0.1781   -3.1062    0.0000 C   0  0  0  0  0  0  0  0  0  0  0  0
    0.0768   -2.3215    0.0000 C   0  0  0  0  0  0  0  0  0  0  0  0
    0.8838   -2.1500    0.0000 C   0  0  0  0  0  0  0  0  0  0  0  0
    1.1387   -1.3654    0.0000 N   0  0  0  0  0  0  0  0  0  0  0  0
    0.6538   -0.6979    0.0000 C   0  0  0  0  0  0  0  0  0  0  0  0
    1.1387   -0.0305    0.0000 N   0  0  0  0  0  0  0  0  0  0  0  0
    1.9233   -0.2854    0.0000 C   0  0  0  0  0  0  0  0  0  0  0  0
    2.6378    0.1271    0.0000 C   0  0  0  0  0  0  0  0  0  0  0  0
    3.3523   -0.2854    0.0000 C   0  0  0  0  0  0  0  0  0  0  0  0
    4.0668    0.1271    0.0000 N   0  0  0  0  0  0  0  0  0  0  0  0
    3.3523   -1.1104    0.0000 C   0  0  0  0  0  0  0  0  0  0  0  0
    2.6378   -1.5229    0.0000 C   0  0  0  0  0  0  0  0  0  0  0  0
    1.9233   -1.1104    0.0000 C   0  0  0  0  0  0  0  0  0  0  0  0
    1.4358   -2.7631    0.0000 C   0  0  0  0  0  0  0  0  0  0  0  0
    1.1809   -3.5477    0.0000 C   0  0  0  0  0  0  0  0  0  0  0  0
    1.7329   -4.1608    0.0000 F   0  0  0  0  0  0  0  0  0  0  0  0
    2.1385   -5.8546    0.0000 C   0  0  0  0  0  0  0  0  0  0  0  0
  1  2  2  0  0  0  0
  2  3  1  0  0  0  0
  2  4  1  0  0  0  0
  4  5  4  0  0  0  0
  5  6  4  0  0  0  0
  6  7  4  0  0  0  0
  7  8  4  0  0  0  0
  8  9  1  0  0  0  0
  9 10  4  0  0  0  0
 10 11  4  0  0  0  0
 11 12  1  0  0  0  0
 12 13  1  0  0  0  0
 12 14  1  0  0  0  0
 12 15  1  0  0  0  0
 11 16  4  0  0  0  0
 16 17  4  0  0  0  0
  9 17  4  0  0  0  0
 17 18  1  0  0  0  0
 18 19  2  0  0  0  0
 18 20  1  0  0  0  0
 20 21  1  0  0  0  0
 21 22  4  0  0  0  0
 22 23  4  0  0  0  0
 23 24  4  0  0  0  0
 24 25  1  0  0  0  0
 25 26  4  0  0  0  0
 26 27  4  0  0  0  0
 27 28  4  0  0  0  0
 28 29  4  0  0  0  0
 29 30  4  0  0  0  0
 30 31  1  0  0  0  0
 30 32  4  0  0  0  0
 32 33  4  0  0  0  0
 33 34  4  0  0  0  0
 28 34  4  0  0  0  0
 25 34  4  0  0  0  0
 24 35  4  0  0  0  0
 35 36  4  0  0  0  0
 21 36  4  0  0  0  0
 36 37  1  0  0  0  0
  8 38  4  0  0  0  0
  4 38  4  0  0  0  0
M  END
>  <CdId>
358791

>  <Mol Weight>
522.457

>  <Formula>
C25H18F4N8O

>  <cmpd_chemblid>
CHEMBL363962

>  <std_type>
Ki

>  <std_value>
11.0

>  <std_unit>
nM

>  <target_id>
CHEMBL2016

>  <target_name>
Coagulation factor IX

>  <organism>
Homo sapiens

>  <target_type>
SINGLE PROTEIN

$$$$

  Mrv0541 08052111042D          

 41 45  0  0  1  0            999 V2000
    8.6329   -2.2539    0.0000 C   0  0  0  0  0  0  0  0  0  0  0  0
    8.2204   -1.5395    0.0000 O   0  0  0  0  0  0  0  0  0  0  0  0
    7.3954   -1.5395    0.0000 C   0  0  0  0  0  0  0  0  0  0  0  0
    6.9829   -2.2539    0.0000 O   0  0  0  0  0  0  0  0  0  0  0  0
    6.9829   -0.8250    0.0000 N   0  0  0  0  0  0  0  0  0  0  0  0
    6.1579   -0.8250    0.0000 C   0  0  0  0  0  0  0  0  0  0  0  0
    5.7454   -0.1105    0.0000 C   0  0  0  0  0  0  0  0  0  0  0  0
    4.9204   -0.1105    0.0000 C   0  0  0  0  0  0  0  0  0  0  0  0
    4.5079   -0.8250    0.0000 C   0  0  0  0  0  0  0  0  0  0  0  0
    4.9204   -1.5395    0.0000 C   0  0  0  0  0  0  0  0  0  0  0  0
    5.7454   -1.5395    0.0000 C   0  0  0  0  0  0  0  0  0  0  0  0
    4.5079   -2.2539    0.0000 N   0  0  0  0  0  0  0  0  0  0  0  0
    4.9204   -2.9684    0.0000 C   0  0  0  0  0  0  0  0  0  0  0  0
    5.7454   -2.9684    0.0000 O   0  0  0  0  0  0  0  0  0  0  0  0
    4.5079   -3.6829    0.0000 C   0  0  2  0  0  0  0  0  0  0  0  0
    4.9204   -4.3974    0.0000 C   0  0  0  0  0  0  0  0  0  0  0  0
    3.6829   -3.6829    0.0000 C   0  0  0  0  0  0  0  0  0  0  0  0
    3.2704   -2.9684    0.0000 C   0  0  0  0  0  0  0  0  0  0  0  0
    2.4454   -2.9684    0.0000 C   0  0  0  0  0  0  0  0  0  0  0  0
    2.0329   -2.2539    0.0000 C   0  0  2  0  0  0  0  0  0  0  0  0
    1.2079   -2.2539    0.0000 N   0  0  0  0  0  0  0  0  0  0  0  0
    0.7954   -2.9684    0.0000 C   0  0  0  0  0  0  0  0  0  0  0  0
   -0.0296   -2.9684    0.0000 C   0  0  0  0  0  0  0  0  0  0  0  0
   -0.4421   -2.2539    0.0000 C   0  0  0  0  0  0  0  0  0  0  0  0
   -1.2671   -2.2539    0.0000 C   0  0  0  0  0  0  0  0  0  0  0  0
   -1.6796   -2.9684    0.0000 C   0  0  0  0  0  0  0  0  0  0  0  0
   -2.5046   -2.9684    0.0000 C   0  0  0  0  0  0  0  0  0  0  0  0
   -2.9171   -2.2539    0.0000 C   0  0  0  0  0  0  0  0  0  0  0  0
   -2.5046   -1.5395    0.0000 C   0  0  0  0  0  0  0  0  0  0  0  0
   -1.6796   -1.5395    0.0000 C   0  0  0  0  0  0  0  0  0  0  0  0
   -1.2671   -0.8250    0.0000 O   0  0  0  0  0  0  0  0  0  0  0  0
   -0.4421   -0.8250    0.0000 C   0  0  0  0  0  0  0  0  0  0  0  0
   -0.0296   -1.5395    0.0000 C   0  0  0  0  0  0  0  0  0  0  0  0
    0.7954   -1.5395    0.0000 C   0  0  0  0  0  0  0  0  0  0  0  0
    1.2079   -0.8250    0.0000 O   0  0  0  0  0  0  0  0  0  0  0  0
    2.4454   -1.5395    0.0000 C   0  0  0  0  0  0  0  0  0  0  0  0
    3.2704   -1.5395    0.0000 C   0  0  0  0  0  0  0  0  0  0  0  0
    3.6829   -0.8250    0.0000 C   0  0  0  0  0  0  0  0  0  0  0  0
    3.2704   -0.1105    0.0000 C   0  0  0  0  0  0  0  0  0  0  0  0
    2.4454   -0.1105    0.0000 C   0  0  0  0  0  0  0  0  0  0  0  0
    2.0329   -0.8250    0.0000 N   0  0  0  0  0  0  0  0  0  0  0  0
  1  2  1  0  0  0  0
  2  3  1  0  0  0  0
  3  4  2  0  0  0  0
  3  5  1  0  0  0  0
  5  6  1  0  0  0  0
  6  7  4  0  0  0  0
  7  8  4  0  0  0  0
  8  9  4  0  0  0  0
  9 10  4  0  0  0  0
 10 11  4  0  0  0  0
  6 11  4  0  0  0  0
 10 12  1  0  0  0  0
 12 13  1  0  0  0  0
 13 14  2  0  0  0  0
 13 15  1  0  0  0  0
 15 16  1  6  0  0  0
 15 17  1  0  0  0  0
 17 18  1  0  0  0  0
 18 19  1  0  0  0  0
 19 20  1  0  0  0  0
 20 21  1  6  0  0  0
 21 22  1  0  0  0  0
 22 23  1  0  0  0  0
 23 24  1  0  0  0  0
 24 25  1  0  0  0  0
 25 26  4  0  0  0  0
 26 27  4  0  0  0  0
 27 28  4  0  0  0  0
 28 29  4  0  0  0  0
 29 30  4  0  0  0  0
 25 30  4  0  0  0  0
 30 31  1  0  0  0  0
 31 32  1  0  0  0  0
 24 33  2  0  0  0  0
 33 34  1  0  0  0  0
 21 34  1  0  0  0  0
 34 35  2  0  0  0  0
 20 36  1  0  0  0  0
 36 37  4  0  0  0  0
 37 38  4  0  0  0  0
  9 38  1  0  0  0  0
 38 39  4  0  0  0  0
 39 40  4  0  0  0  0
 40 41  4  0  0  0  0
 36 41  4  0  0  0  0
M  END
>  <CdId>
358792

>  <Mol Weight>
554.6362

>  <Formula>
C32H34N4O5

>  <cmpd_chemblid>
CHEMBL4108037

>  <std_type>
Ki

>  <std_value>
266.7

>  <std_unit>
nM

>  <target_id>
CHEMBL2016

>  <target_name>
Coagulation factor IX

>  <organism>
Homo sapiens

>  <target_type>
SINGLE PROTEIN

$$$$

  Mrv0541 08052111042D          

 31 34  0  0  0  0            999 V2000
   -5.3649   -1.3480    0.0000 N   0  0  0  0  0  0  0  0  0  0  0  0
   -4.9524   -2.0625    0.0000 C   0  0  0  0  0  0  0  0  0  0  0  0
   -5.3649   -2.7770    0.0000 N   0  0  0  0  0  0  0  0  0  0  0  0
   -4.1274   -2.0625    0.0000 C   0  0  0  0  0  0  0  0  0  0  0  0
   -3.6425   -1.3951    0.0000 C   0  0  0  0  0  0  0  0  0  0  0  0
   -2.8579   -1.6500    0.0000 C   0  0  0  0  0  0  0  0  0  0  0  0
   -2.1434   -1.2375    0.0000 C   0  0  0  0  0  0  0  0  0  0  0  0
   -2.1434   -0.4125    0.0000 O   0  0  0  0  0  0  0  0  0  0  0  0
   -1.4289   -0.0000    0.0000 C   0  0  0  0  0  0  0  0  0  0  0  0
   -0.7145   -0.4125    0.0000 C   0  0  0  0  0  0  0  0  0  0  0  0
    0.0000   -0.0000    0.0000 N   0  0  0  0  0  0  0  0  0  0  0  0
    0.7145   -0.4125    0.0000 C   0  0  0  0  0  0  0  0  0  0  0  0
    0.7145   -1.2375    0.0000 O   0  0  0  0  0  0  0  0  0  0  0  0
    1.4289   -0.0000    0.0000 O   0  0  0  0  0  0  0  0  0  0  0  0
    2.1434   -0.4125    0.0000 C   0  0  0  0  0  0  0  0  0  0  0  0
    2.8579   -0.0000    0.0000 C   0  0  0  0  0  0  0  0  0  0  0  0
    3.5724   -0.4125    0.0000 C   0  0  0  0  0  0  0  0  0  0  0  0
    3.5724   -1.2375    0.0000 C   0  0  0  0  0  0  0  0  0  0  0  0
    2.8579   -1.6500    0.0000 C   0  0  0  0  0  0  0  0  0  0  0  0
    2.1434   -1.2375    0.0000 C   0  0  0  0  0  0  0  0  0  0  0  0
   -1.4289    0.8250    0.0000 C   0  0  0  0  0  0  0  0  0  0  0  0
   -2.1434    1.2375    0.0000 C   0  0  0  0  0  0  0  0  0  0  0  0
   -2.1434    2.0625    0.0000 C   0  0  0  0  0  0  0  0  0  0  0  0
   -1.4289    2.4750    0.0000 C   0  0  0  0  0  0  0  0  0  0  0  0
   -0.7145    2.0625    0.0000 C   0  0  0  0  0  0  0  0  0  0  0  0
   -0.7145    1.2375    0.0000 C   0  0  0  0  0  0  0  0  0  0  0  0
   -1.4289   -1.6500    0.0000 C   0  0  0  0  0  0  0  0  0  0  0  0
   -1.4289   -2.4750    0.0000 C   0  0  0  0  0  0  0  0  0  0  0  0
   -2.1434   -2.8875    0.0000 C   0  0  0  0  0  0  0  0  0  0  0  0
   -2.8579   -2.4750    0.0000 C   0  0  0  0  0  0  0  0  0  0  0  0
   -3.6425   -2.7299    0.0000 S   0  0  0  0  0  0  0  0  0  0  0  0
  1  2  2  0  0  0  0
  2  3  1  0  0  0  0
  2  4  1  0  0  0  0
  4  5  4  0  0  0  0
  5  6  4  0  0  0  0
  6  7  4  0  0  0  0
  7  8  1  0  0  0  0
  8  9  1  0  0  0  0
  9 10  1  0  0  0  0
 10 11  1  0  0  0  0
 11 12  1  0  0  0  0
 12 13  2  0  0  0  0
 12 14  1  0  0  0  0
 14 15  1  0  0  0  0
 15 16  4  0  0  0  0
 16 17  4  0  0  0  0
 17 18  4  0  0  0  0
 18 19  4  0  0  0  0
 19 20  4  0  0  0  0
 15 20  4  0  0  0  0
  9 21  1  0  0  0  0
 21 22  4  0  0  0  0
 22 23  4  0  0  0  0
 23 24  4  0  0  0  0
 24 25  4  0  0  0  0
 25 26  4  0  0  0  0
 21 26  4  0  0  0  0
  7 27  4  0  0  0  0
 27 28  4  0  0  0  0
 28 29  4  0  0  0  0
 29 30  4  0  0  0  0
  6 30  4  0  0  0  0
 30 31  4  0  0  0  0
  4 31  4  0  0  0  0
M  END
>  <CdId>
358794

>  <Mol Weight>
431.507

>  <Formula>
C24H21N3O3S

>  <cmpd_chemblid>
CHEMBL597370

>  <std_type>
Ki

>  <std_value>
50.0

>  <std_unit>
nM

>  <target_id>
CHEMBL2016

>  <target_name>
Coagulation factor IX

>  <organism>
Homo sapiens

>  <target_type>
SINGLE PROTEIN

$$$$

  Mrv0541 08052111042D          

 37 41  0  0  1  0            999 V2000
    3.9849    3.9849    0.0000 C   0  0  0  0  0  0  0  0  0  0  0  0
    4.3974    3.2704    0.0000 C   0  0  2  0  0  0  0  0  0  0  0  0
    5.2224    3.2704    0.0000 C   0  0  0  0  0  0  0  0  0  0  0  0
    5.6349    2.5559    0.0000 C   0  0  0  0  0  0  0  0  0  0  0  0
    6.4599    2.5559    0.0000 C   0  0  0  0  0  0  0  0  0  0  0  0
    6.8724    1.8414    0.0000 C   0  0  2  0  0  0  0  0  0  0  0  0
    7.6974    1.8414    0.0000 N   0  0  0  0  0  0  0  0  0  0  0  0
    8.1099    2.5559    0.0000 C   0  0  0  0  0  0  0  0  0  0  0  0
    8.9349    2.5559    0.0000 C   0  0  0  0  0  0  0  0  0  0  0  0
    9.3474    1.8414    0.0000 C   0  0  0  0  0  0  0  0  0  0  0  0
   10.1724    1.8414    0.0000 C   0  0  0  0  0  0  0  0  0  0  0  0
   10.5849    2.5559    0.0000 C   0  0  0  0  0  0  0  0  0  0  0  0
   10.1724    3.2704    0.0000 F   0  0  0  0  0  0  0  0  0  0  0  0
   11.4099    2.5559    0.0000 C   0  0  0  0  0  0  0  0  0  0  0  0
   11.8224    1.8414    0.0000 C   0  0  0  0  0  0  0  0  0  0  0  0
   11.4099    1.1270    0.0000 C   0  0  0  0  0  0  0  0  0  0  0  0
   10.5849    1.1270    0.0000 C   0  0  0  0  0  0  0  0  0  0  0  0
   10.1724    0.4125    0.0000 C   0  0  0  0  0  0  0  0  0  0  0  0
    9.7599   -0.3020    0.0000 N   0  0  0  0  0  0  0  0  0  0  0  0
    8.9349    1.1270    0.0000 C   0  0  0  0  0  0  0  0  0  0  0  0
    8.1099    1.1270    0.0000 C   0  0  0  0  0  0  0  0  0  0  0  0
    7.6974    0.4125    0.0000 O   0  0  0  0  0  0  0  0  0  0  0  0
    6.4599    1.1270    0.0000 C   0  0  0  0  0  0  0  0  0  0  0  0
    5.6349    1.1270    0.0000 C   0  0  0  0  0  0  0  0  0  0  0  0
    5.2224    0.4125    0.0000 C   0  0  0  0  0  0  0  0  0  0  0  0
    5.6349   -0.3020    0.0000 C   0  0  0  0  0  0  0  0  0  0  0  0
    6.4599   -0.3020    0.0000 C   0  0  0  0  0  0  0  0  0  0  0  0
    6.8724    0.4125    0.0000 N   0  0  0  0  0  0  0  0  0  0  0  0
    4.3974    0.4125    0.0000 C   0  0  0  0  0  0  0  0  0  0  0  0
    3.9849   -0.3020    0.0000 C   0  0  0  0  0  0  0  0  0  0  0  0
    3.1599   -0.3020    0.0000 C   0  0  0  0  0  0  0  0  0  0  0  0
    2.7474    0.4125    0.0000 C   0  0  0  0  0  0  0  0  0  0  0  0
    3.1599    1.1270    0.0000 C   0  0  0  0  0  0  0  0  0  0  0  0
    3.9849    1.1270    0.0000 C   0  0  0  0  0  0  0  0  0  0  0  0
    4.3974    1.8414    0.0000 N   0  0  0  0  0  0  0  0  0  0  0  0
    3.9849    2.5559    0.0000 C   0  0  0  0  0  0  0  0  0  0  0  0
    3.1599    2.5559    0.0000 O   0  0  0  0  0  0  0  0  0  0  0  0
  2  1  1  6  0  0  0
  2  3  1  0  0  0  0
  3  4  1  0  0  0  0
  4  5  1  0  0  0  0
  5  6  1  0  0  0  0
  6  7  1  6  0  0  0
  7  8  1  0  0  0  0
  8  9  1  0  0  0  0
  9 10  1  0  0  0  0
 10 11  1  0  0  0  0
 11 12  4  0  0  0  0
 12 13  1  0  0  0  0
 12 14  4  0  0  0  0
 14 15  4  0  0  0  0
 15 16  4  0  0  0  0
 16 17  4  0  0  0  0
 11 17  4  0  0  0  0
 17 18  1  0  0  0  0
 18 19  3  0  0  0  0
 10 20  2  0  0  0  0
 20 21  1  0  0  0  0
  7 21  1  0  0  0  0
 21 22  2  0  0  0  0
  6 23  1  0  0  0  0
 23 24  4  0  0  0  0
 24 25  4  0  0  0  0
 25 26  4  0  0  0  0
 26 27  4  0  0  0  0
 27 28  4  0  0  0  0
 23 28  4  0  0  0  0
 25 29  1  0  0  0  0
 29 30  4  0  0  0  0
 30 31  4  0  0  0  0
 31 32  4  0  0  0  0
 32 33  4  0  0  0  0
 33 34  4  0  0  0  0
 29 34  4  0  0  0  0
 34 35  1  0  0  0  0
 35 36  1  0  0  0  0
  2 36  1  0  0  0  0
 36 37  2  0  0  0  0
M  END
>  <CdId>
358795

>  <Mol Weight>
494.5594

>  <Formula>
C30H27FN4O2

>  <cmpd_chemblid>
CHEMBL4113874

>  <std_type>
Ki

>  <std_value>
101.7

>  <std_unit>
nM

>  <target_id>
CHEMBL2016

>  <target_name>
Coagulation factor IX

>  <organism>
Homo sapiens

>  <target_type>
SINGLE PROTEIN

$$$$

  Mrv0541 08052111042D          

 44 48  0  0  1  0            999 V2000
    8.6329   -2.2539    0.0000 C   0  0  0  0  0  0  0  0  0  0  0  0
    8.2204   -1.5395    0.0000 O   0  0  0  0  0  0  0  0  0  0  0  0
    7.3954   -1.5395    0.0000 C   0  0  0  0  0  0  0  0  0  0  0  0
    6.9829   -2.2539    0.0000 O   0  0  0  0  0  0  0  0  0  0  0  0
    6.9829   -0.8250    0.0000 N   0  0  0  0  0  0  0  0  0  0  0  0
    6.1579   -0.8250    0.0000 C   0  0  0  0  0  0  0  0  0  0  0  0
    5.7454   -0.1105    0.0000 C   0  0  0  0  0  0  0  0  0  0  0  0
    4.9204   -0.1105    0.0000 C   0  0  0  0  0  0  0  0  0  0  0  0
    4.5079   -0.8250    0.0000 C   0  0  0  0  0  0  0  0  0  0  0  0
    4.9204   -1.5395    0.0000 C   0  0  0  0  0  0  0  0  0  0  0  0
    5.7454   -1.5395    0.0000 C   0  0  0  0  0  0  0  0  0  0  0  0
    4.5079   -2.2539    0.0000 N   0  0  0  0  0  0  0  0  0  0  0  0
    4.9204   -2.9684    0.0000 C   0  0  0  0  0  0  0  0  0  0  0  0
    5.7454   -2.9684    0.0000 O   0  0  0  0  0  0  0  0  0  0  0  0
    4.5079   -3.6829    0.0000 C   0  0  2  0  0  0  0  0  0  0  0  0
    4.9204   -4.3974    0.0000 C   0  0  0  0  0  0  0  0  0  0  0  0
    3.6829   -3.6829    0.0000 C   0  0  0  0  0  0  0  0  0  0  0  0
    3.2704   -2.9684    0.0000 C   0  0  0  0  0  0  0  0  0  0  0  0
    2.4454   -2.9684    0.0000 C   0  0  0  0  0  0  0  0  0  0  0  0
    2.0329   -2.2539    0.0000 C   0  0  2  0  0  0  0  0  0  0  0  0
    1.2079   -2.2539    0.0000 N   0  0  0  0  0  0  0  0  0  0  0  0
    0.7954   -2.9684    0.0000 C   0  0  0  0  0  0  0  0  0  0  0  0
   -0.0296   -2.9684    0.0000 C   0  0  0  0  0  0  0  0  0  0  0  0
   -0.4421   -2.2539    0.0000 C   0  0  0  0  0  0  0  0  0  0  0  0
   -1.2671   -2.2539    0.0000 C   0  0  0  0  0  0  0  0  0  0  0  0
   -1.6796   -2.9684    0.0000 C   0  0  0  0  0  0  0  0  0  0  0  0
   -1.2671   -3.6829    0.0000 C   0  0  0  0  0  0  0  0  0  0  0  0
   -0.4421   -3.6829    0.0000 C   0  0  0  0  0  0  0  0  0  0  0  0
   -1.6796   -4.3974    0.0000 O   0  0  0  0  0  0  0  0  0  0  0  0
   -2.5046   -2.9684    0.0000 C   0  0  0  0  0  0  0  0  0  0  0  0
   -2.9171   -2.2539    0.0000 C   0  0  0  0  0  0  0  0  0  0  0  0
   -2.5046   -1.5395    0.0000 C   0  0  0  0  0  0  0  0  0  0  0  0
   -2.9171   -0.8250    0.0000 Cl  0  0  0  0  0  0  0  0  0  0  0  0
   -1.6796   -1.5395    0.0000 C   0  0  0  0  0  0  0  0  0  0  0  0
   -1.2671   -0.8250    0.0000 F   0  0  0  0  0  0  0  0  0  0  0  0
   -0.0296   -1.5395    0.0000 C   0  0  0  0  0  0  0  0  0  0  0  0
    0.7954   -1.5395    0.0000 C   0  0  0  0  0  0  0  0  0  0  0  0
    1.2079   -0.8250    0.0000 O   0  0  0  0  0  0  0  0  0  0  0  0
    2.4454   -1.5395    0.0000 C   0  0  0  0  0  0  0  0  0  0  0  0
    2.0329   -0.8250    0.0000 C   0  0  0  0  0  0  0  0  0  0  0  0
    2.4454   -0.1105    0.0000 C   0  0  0  0  0  0  0  0  0  0  0  0
    3.2704   -0.1105    0.0000 C   0  0  0  0  0  0  0  0  0  0  0  0
    3.6829   -0.8250    0.0000 C   0  0  0  0  0  0  0  0  0  0  0  0
    3.2704   -1.5395    0.0000 C   0  0  0  0  0  0  0  0  0  0  0  0
  1  2  1  0  0  0  0
  2  3  1  0  0  0  0
  3  4  2  0  0  0  0
  3  5  1  0  0  0  0
  5  6  1  0  0  0  0
  6  7  4  0  0  0  0
  7  8  4  0  0  0  0
  8  9  4  0  0  0  0
  9 10  4  0  0  0  0
 10 11  4  0  0  0  0
  6 11  4  0  0  0  0
 10 12  1  0  0  0  0
 12 13  1  0  0  0  0
 13 14  2  0  0  0  0
 13 15  1  0  0  0  0
 15 16  1  6  0  0  0
 15 17  1  0  0  0  0
 17 18  1  0  0  0  0
 18 19  1  0  0  0  0
 19 20  1  0  0  0  0
 20 21  1  6  0  0  0
 21 22  1  0  0  0  0
 22 23  1  0  0  0  0
 23 24  1  0  0  0  0
 24 25  1  0  0  0  0
 25 26  4  0  0  0  0
 26 27  1  0  0  0  0
 27 28  1  0  0  0  0
 27 29  2  0  0  0  0
 26 30  4  0  0  0  0
 30 31  4  0  0  0  0
 31 32  4  0  0  0  0
 32 33  1  0  0  0  0
 32 34  4  0  0  0  0
 25 34  4  0  0  0  0
 34 35  1  0  0  0  0
 24 36  2  0  0  0  0
 36 37  1  0  0  0  0
 21 37  1  0  0  0  0
 37 38  2  0  0  0  0
 20 39  1  0  0  0  0
 39 40  4  0  0  0  0
 40 41  4  0  0  0  0
 41 42  4  0  0  0  0
 42 43  4  0  0  0  0
  9 43  1  0  0  0  0
 43 44  4  0  0  0  0
 39 44  4  0  0  0  0
M  END
>  <CdId>
358797

>  <Mol Weight>
618.094

>  <Formula>
C34H33ClFN3O5

>  <cmpd_chemblid>
CHEMBL4107795

>  <std_type>
Ki

>  <std_value>
0.17

>  <std_unit>
nM

>  <target_id>
CHEMBL2016

>  <target_name>
Coagulation factor IX

>  <organism>
Homo sapiens

>  <target_type>
SINGLE PROTEIN

$$$$

  Mrv0541 08052111042D          

 40 44  0  0  1  0            999 V2000
    8.6329   -2.2539    0.0000 C   0  0  0  0  0  0  0  0  0  0  0  0
    8.2204   -1.5395    0.0000 O   0  0  0  0  0  0  0  0  0  0  0  0
    7.3954   -1.5395    0.0000 C   0  0  0  0  0  0  0  0  0  0  0  0
    6.9829   -2.2539    0.0000 O   0  0  0  0  0  0  0  0  0  0  0  0
    6.9829   -0.8250    0.0000 N   0  0  0  0  0  0  0  0  0  0  0  0
    6.1579   -0.8250    0.0000 C   0  0  0  0  0  0  0  0  0  0  0  0
    5.7454   -0.1105    0.0000 C   0  0  0  0  0  0  0  0  0  0  0  0
    4.9204   -0.1105    0.0000 C   0  0  0  0  0  0  0  0  0  0  0  0
    4.5079   -0.8250    0.0000 C   0  0  0  0  0  0  0  0  0  0  0  0
    4.9204   -1.5395    0.0000 C   0  0  0  0  0  0  0  0  0  0  0  0
    5.7454   -1.5395    0.0000 C   0  0  0  0  0  0  0  0  0  0  0  0
    4.5079   -2.2539    0.0000 N   0  0  0  0  0  0  0  0  0  0  0  0
    4.9204   -2.9684    0.0000 C   0  0  0  0  0  0  0  0  0  0  0  0
    5.7454   -2.9684    0.0000 O   0  0  0  0  0  0  0  0  0  0  0  0
    4.5079   -3.6829    0.0000 C   0  0  2  0  0  0  0  0  0  0  0  0
    4.9204   -4.3974    0.0000 C   0  0  0  0  0  0  0  0  0  0  0  0
    3.6829   -3.6829    0.0000 C   0  0  0  0  0  0  0  0  0  0  0  0
    3.2704   -2.9684    0.0000 C   0  0  0  0  0  0  0  0  0  0  0  0
    2.4454   -2.9684    0.0000 C   0  0  0  0  0  0  0  0  0  0  0  0
    2.0329   -2.2539    0.0000 C   0  0  2  0  0  0  0  0  0  0  0  0
    1.2079   -2.2539    0.0000 N   0  0  0  0  0  0  0  0  0  0  0  0
    0.7954   -2.9684    0.0000 C   0  0  0  0  0  0  0  0  0  0  0  0
   -0.0296   -2.9684    0.0000 C   0  0  0  0  0  0  0  0  0  0  0  0
   -0.4421   -2.2539    0.0000 C   0  0  0  0  0  0  0  0  0  0  0  0
   -1.2671   -2.2539    0.0000 C   0  0  0  0  0  0  0  0  0  0  0  0
   -1.6796   -2.9684    0.0000 C   0  0  0  0  0  0  0  0  0  0  0  0
   -2.5046   -2.9684    0.0000 C   0  0  0  0  0  0  0  0  0  0  0  0
   -2.9171   -2.2539    0.0000 N   0  0  0  0  0  0  0  0  0  0  0  0
   -2.5046   -1.5395    0.0000 C   0  0  0  0  0  0  0  0  0  0  0  0
   -2.9171   -0.8250    0.0000 N   0  0  0  0  0  0  0  0  0  0  0  0
   -1.6796   -1.5395    0.0000 C   0  0  0  0  0  0  0  0  0  0  0  0
   -0.0296   -1.5395    0.0000 C   0  0  0  0  0  0  0  0  0  0  0  0
    0.7954   -1.5395    0.0000 C   0  0  0  0  0  0  0  0  0  0  0  0
    1.2079   -0.8250    0.0000 O   0  0  0  0  0  0  0  0  0  0  0  0
    2.4454   -1.5395    0.0000 C   0  0  0  0  0  0  0  0  0  0  0  0
    3.2704   -1.5395    0.0000 C   0  0  0  0  0  0  0  0  0  0  0  0
    3.6829   -0.8250    0.0000 C   0  0  0  0  0  0  0  0  0  0  0  0
    3.2704   -0.1105    0.0000 C   0  0  0  0  0  0  0  0  0  0  0  0
    2.4454   -0.1105    0.0000 C   0  0  0  0  0  0  0  0  0  0  0  0
    2.0329   -0.8250    0.0000 N   0  0  0  0  0  0  0  0  0  0  0  0
  1  2  1  0  0  0  0
  2  3  1  0  0  0  0
  3  4  2  0  0  0  0
  3  5  1  0  0  0  0
  5  6  1  0  0  0  0
  6  7  4  0  0  0  0
  7  8  4  0  0  0  0
  8  9  4  0  0  0  0
  9 10  4  0  0  0  0
 10 11  4  0  0  0  0
  6 11  4  0  0  0  0
 10 12  1  0  0  0  0
 12 13  1  0  0  0  0
 13 14  2  0  0  0  0
 13 15  1  0  0  0  0
 15 16  1  6  0  0  0
 15 17  1  0  0  0  0
 17 18  1  0  0  0  0
 18 19  1  0  0  0  0
 19 20  1  0  0  0  0
 20 21  1  6  0  0  0
 21 22  1  0  0  0  0
 22 23  1  0  0  0  0
 23 24  1  0  0  0  0
 24 25  1  0  0  0  0
 25 26  4  0  0  0  0
 26 27  4  0  0  0  0
 27 28  4  0  0  0  0
 28 29  4  0  0  0  0
 29 30  1  0  0  0  0
 29 31  4  0  0  0  0
 25 31  4  0  0  0  0
 24 32  2  0  0  0  0
 32 33  1  0  0  0  0
 21 33  1  0  0  0  0
 33 34  2  0  0  0  0
 20 35  1  0  0  0  0
 35 36  4  0  0  0  0
 36 37  4  0  0  0  0
  9 37  1  0  0  0  0
 37 38  4  0  0  0  0
 38 39  4  0  0  0  0
 39 40  4  0  0  0  0
 35 40  4  0  0  0  0
M  END
>  <CdId>
358798

>  <Mol Weight>
540.6129

>  <Formula>
C30H32N6O4

>  <cmpd_chemblid>
CHEMBL4111600

>  <std_type>
Ki

>  <std_value>
23.55

>  <std_unit>
nM

>  <target_id>
CHEMBL2016

>  <target_name>
Coagulation factor IX

>  <organism>
Homo sapiens

>  <target_type>
SINGLE PROTEIN

$$$$

  Mrv0541 08052111042D          

 37 40  0  0  1  0            999 V2000
   -5.4883   -1.0047    0.0000 C   0  0  0  0  0  0  0  0  0  0  0  0
   -4.6678   -0.9185    0.0000 C   0  0  0  0  0  0  0  0  0  0  0  0
   -4.3323   -0.1648    0.0000 C   0  0  0  0  0  0  0  0  0  0  0  0
   -3.5118   -0.0785    0.0000 C   0  0  0  0  0  0  0  0  0  0  0  0
   -3.1762    0.6751    0.0000 S   0  0  0  0  0  0  0  0  0  0  0  0
   -3.9299    1.0107    0.0000 O   0  0  0  0  0  0  0  0  0  0  0  0
   -2.4225    0.3396    0.0000 O   0  0  0  0  0  0  0  0  0  0  0  0
   -2.8407    1.4288    0.0000 N   0  0  0  0  0  0  0  0  0  0  0  0
   -2.0202    1.5150    0.0000 C   0  0  1  0  0  0  0  0  0  0  0  0
   -1.6077    2.2295    0.0000 C   0  0  0  0  0  0  0  0  0  0  0  0
   -0.8007    2.0580    0.0000 C   0  0  0  0  0  0  0  0  0  0  0  0
   -0.7145    1.2375    0.0000 N   0  0  0  0  0  0  0  0  0  0  0  0
    0.0000    0.8250    0.0000 C   0  0  2  0  0  0  0  0  0  0  0  0
    0.0000    0.0000    0.0000 C   0  0  0  0  0  0  0  0  0  0  0  0
    0.7145   -0.4125    0.0000 C   0  0  0  0  0  0  0  0  0  0  0  0
    1.4289    0.0000    0.0000 C   0  0  0  0  0  0  0  0  0  0  0  0
    2.1434   -0.4125    0.0000 C   0  0  0  0  0  0  0  0  0  0  0  0
    2.8579    0.0000    0.0000 C   0  0  0  0  0  0  0  0  0  0  0  0
    3.5724   -0.4125    0.0000 C   0  0  0  0  0  0  0  0  0  0  0  0
    3.5724   -1.2375    0.0000 N   0  0  0  0  0  0  0  0  0  0  0  0
    2.8579   -1.6500    0.0000 C   0  0  0  0  0  0  0  0  0  0  0  0
    2.8579   -2.4750    0.0000 N   0  0  0  0  0  0  0  0  0  0  0  0
    2.1434   -1.2375    0.0000 C   0  0  0  0  0  0  0  0  0  0  0  0
    1.4289   -1.6500    0.0000 C   0  0  0  0  0  0  0  0  0  0  0  0
    0.7145   -1.2375    0.0000 C   0  0  0  0  0  0  0  0  0  0  0  0
    0.0000   -1.6500    0.0000 F   0  0  0  0  0  0  0  0  0  0  0  0
    0.7145    1.2375    0.0000 C   0  0  0  0  0  0  0  0  0  0  0  0
    0.7145    2.0625    0.0000 O   0  0  0  0  0  0  0  0  0  0  0  0
    1.4289    0.8250    0.0000 O   0  0  0  0  0  0  0  0  0  0  0  0
   -1.4681    0.9019    0.0000 C   0  0  0  0  0  0  0  0  0  0  0  0
   -1.6397    0.0950    0.0000 O   0  0  0  0  0  0  0  0  0  0  0  0
   -3.0269   -0.7460    0.0000 C   0  0  0  0  0  0  0  0  0  0  0  0
   -3.3624   -1.4997    0.0000 N   0  0  0  0  0  0  0  0  0  0  0  0
   -4.1829   -1.5859    0.0000 C   0  0  0  0  0  0  0  0  0  0  0  0
   -4.5184   -2.3396    0.0000 N   0  0  0  0  0  0  0  0  0  0  0  0
   -4.0335   -3.0070    0.0000 C   0  0  0  0  0  0  0  0  0  0  0  0
   -5.3389   -2.4258    0.0000 C   0  0  0  0  0  0  0  0  0  0  0  0
  1  2  1  0  0  0  0
  2  3  4  0  0  0  0
  3  4  4  0  0  0  0
  4  5  1  0  0  0  0
  5  6  2  0  0  0  0
  5  7  2  0  0  0  0
  5  8  1  0  0  0  0
  9  8  1  1  0  0  0
  9 10  1  0  0  0  0
 10 11  1  0  0  0  0
 11 12  1  0  0  0  0
 13 12  1  1  0  0  0
 13 14  1  0  0  0  0
 14 15  1  0  0  0  0
 15 16  4  0  0  0  0
 16 17  4  0  0  0  0
 17 18  4  0  0  0  0
 18 19  4  0  0  0  0
 19 20  4  0  0  0  0
 20 21  4  0  0  0  0
 21 22  1  0  0  0  0
 21 23  4  0  0  0  0
 17 23  4  0  0  0  0
 23 24  4  0  0  0  0
 24 25  4  0  0  0  0
 15 25  4  0  0  0  0
 25 26  1  0  0  0  0
 13 27  1  0  0  0  0
 27 28  2  0  0  0  0
 27 29  1  0  0  0  0
 12 30  1  0  0  0  0
  9 30  1  0  0  0  0
 30 31  2  0  0  0  0
  4 32  4  0  0  0  0
 32 33  4  0  0  0  0
 33 34  4  0  0  0  0
  2 34  4  0  0  0  0
 34 35  1  0  0  0  0
 35 36  1  0  0  0  0
 35 37  1  0  0  0  0
M  END
>  <CdId>
358799

>  <Mol Weight>
530.572

>  <Formula>
C24H27FN6O5S

>  <cmpd_chemblid>
CHEMBL3947561

>  <std_type>
Ki

>  <std_value>
175.0

>  <std_unit>
nM

>  <target_id>
CHEMBL2016

>  <target_name>
Coagulation factor IX

>  <organism>
Homo sapiens

>  <target_type>
SINGLE PROTEIN

$$$$

  Mrv0541 08052111042D          

 39 42  0  0  1  0            999 V2000
    2.9001   -1.7797    0.0000 N   0  0  0  0  0  0  0  0  0  0  0  0
    2.1856   -1.3672    0.0000 C   0  0  0  0  0  0  0  0  0  0  0  0
    2.1856   -0.5422    0.0000 N   0  0  0  0  0  0  0  0  0  0  0  0
    1.4711   -1.7797    0.0000 C   0  0  0  0  0  0  0  0  0  0  0  0
    1.4711   -2.6047    0.0000 C   0  0  0  0  0  0  0  0  0  0  0  0
    0.7566   -3.0172    0.0000 C   0  0  0  0  0  0  0  0  0  0  0  0
    0.0422   -2.6047    0.0000 C   0  0  0  0  0  0  0  0  0  0  0  0
   -0.7424   -2.8597    0.0000 S   0  0  0  0  0  0  0  0  0  0  0  0
   -1.2274   -2.1922    0.0000 C   0  0  0  0  0  0  0  0  0  0  0  0
   -0.7424   -1.5248    0.0000 C   0  0  0  0  0  0  0  0  0  0  0  0
   -0.9974   -0.7402    0.0000 C   0  0  1  0  0  0  0  0  0  0  0  0
   -1.8044   -0.5687    0.0000 C   0  0  0  0  0  0  0  0  0  0  0  0
   -2.0593    0.2160    0.0000 C   0  0  0  0  0  0  0  0  0  0  0  0
   -2.8663    0.3875    0.0000 C   0  0  0  0  0  0  0  0  0  0  0  0
   -3.1212    1.1721    0.0000 C   0  0  0  0  0  0  0  0  0  0  0  0
   -2.5692    1.7852    0.0000 C   0  0  0  0  0  0  0  0  0  0  0  0
   -1.7622    1.6137    0.0000 C   0  0  0  0  0  0  0  0  0  0  0  0
   -1.5073    0.8291    0.0000 C   0  0  0  0  0  0  0  0  0  0  0  0
   -0.4454   -0.1271    0.0000 C   0  0  0  0  0  0  0  0  0  0  0  0
    0.3616   -0.2986    0.0000 O   0  0  0  0  0  0  0  0  0  0  0  0
   -0.7003    0.6575    0.0000 N   0  0  0  0  0  0  0  0  0  0  0  0
   -0.1483    1.2706    0.0000 C   0  0  0  0  0  0  0  0  0  0  0  0
   -0.4032    2.0552    0.0000 C   0  0  0  0  0  0  0  0  0  0  0  0
    0.1488    2.6683    0.0000 C   0  0  0  0  0  0  0  0  0  0  0  0
    0.9558    2.4968    0.0000 C   0  0  0  0  0  0  0  0  0  0  0  0
    1.6232    2.9817    0.0000 N   0  0  0  0  0  0  0  0  0  0  0  0
    2.2907    2.4968    0.0000 C   0  0  0  0  0  0  0  0  0  0  0  0
    2.0357    1.7122    0.0000 S   0  0  0  0  0  0  0  0  0  0  0  0
    1.2107    1.7122    0.0000 C   0  0  0  0  0  0  0  0  0  0  0  0
    0.6587    1.0991    0.0000 C   0  0  0  0  0  0  0  0  0  0  0  0
    0.0422   -1.7797    0.0000 C   0  0  0  0  0  0  0  0  0  0  0  0
    0.7566   -1.3672    0.0000 C   0  0  0  0  0  0  0  0  0  0  0  0
    5.0142   -0.8839    0.0000 O   0  0  0  0  0  0  0  0  0  0  0  0
    5.7286   -0.4714    0.0000 C   0  0  0  0  0  0  0  0  0  0  0  0
    6.4431   -0.8839    0.0000 O   0  0  0  0  0  0  0  0  0  0  0  0
    5.7286    0.3536    0.0000 C   0  0  0  0  0  0  0  0  0  0  0  0
    5.7286    1.1786    0.0000 F   0  0  0  0  0  0  0  0  0  0  0  0
    6.5536    0.3536    0.0000 F   0  0  0  0  0  0  0  0  0  0  0  0
    4.9036    0.3536    0.0000 F   0  0  0  0  0  0  0  0  0  0  0  0
  1  2  2  0  0  0  0
  2  3  1  0  0  0  0
  2  4  1  0  0  0  0
  4  5  4  0  0  0  0
  5  6  4  0  0  0  0
  6  7  4  0  0  0  0
  7  8  4  0  0  0  0
  8  9  4  0  0  0  0
  9 10  4  0  0  0  0
 10 11  1  0  0  0  0
 11 12  1  0  0  0  0
 12 13  1  0  0  0  0
 13 14  4  0  0  0  0
 14 15  4  0  0  0  0
 15 16  4  0  0  0  0
 16 17  4  0  0  0  0
 17 18  4  0  0  0  0
 13 18  4  0  0  0  0
 11 19  1  1  0  0  0
 19 20  2  0  0  0  0
 19 21  1  0  0  0  0
 21 22  1  0  0  0  0
 22 23  4  0  0  0  0
 23 24  4  0  0  0  0
 24 25  4  0  0  0  0
 25 26  4  0  0  0  0
 26 27  4  0  0  0  0
 27 28  4  0  0  0  0
 28 29  4  0  0  0  0
 25 29  4  0  0  0  0
 29 30  4  0  0  0  0
 22 30  4  0  0  0  0
 10 31  4  0  0  0  0
  7 31  4  0  0  0  0
 31 32  4  0  0  0  0
  4 32  4  0  0  0  0
 33 34  2  0  0  0  0
 34 35  1  0  0  0  0
 34 36  1  0  0  0  0
 36 37  1  0  0  0  0
 36 38  1  0  0  0  0
 36 39  1  0  0  0  0
M  END
>  <CdId>
358800

>  <Mol Weight>
570.606

>  <Formula>
C27H21F3N4O3S2

>  <cmpd_chemblid>
CHEMBL181116

>  <std_type>
Ki

>  <std_value>
480.0

>  <std_unit>
nM

>  <target_id>
CHEMBL2016

>  <target_name>
Coagulation factor IX

>  <organism>
Homo sapiens

>  <target_type>
SINGLE PROTEIN

$$$$

  Mrv0541 08052111042D          

 40 43  0  0  1  0            999 V2000
    6.3812    4.1680    0.0000 C   0  0  0  0  0  0  0  0  0  0  0  0
    6.0456    3.4144    0.0000 N   0  0  0  0  0  0  0  0  0  0  0  0
    6.5306    2.7469    0.0000 C   0  0  0  0  0  0  0  0  0  0  0  0
    5.2252    3.3281    0.0000 C   0  0  0  0  0  0  0  0  0  0  0  0
    4.8896    2.5745    0.0000 C   0  0  0  0  0  0  0  0  0  0  0  0
    4.0691    2.4882    0.0000 C   0  0  0  0  0  0  0  0  0  0  0  0
    3.5842    3.1557    0.0000 C   0  0  0  0  0  0  0  0  0  0  0  0
    2.7637    3.0694    0.0000 S   0  0  0  0  0  0  0  0  0  0  0  0
    2.6775    3.8899    0.0000 O   0  0  0  0  0  0  0  0  0  0  0  0
    2.8500    2.2489    0.0000 O   0  0  0  0  0  0  0  0  0  0  0  0
    1.9432    2.9832    0.0000 N   0  0  0  0  0  0  0  0  0  0  0  0
    1.6077    2.2295    0.0000 C   0  0  1  0  0  0  0  0  0  0  0  0
    2.0202    1.5150    0.0000 C   0  0  0  0  0  0  0  0  0  0  0  0
    1.4681    0.9019    0.0000 C   0  0  0  0  0  0  0  0  0  0  0  0
    0.7145    1.2375    0.0000 N   0  0  0  0  0  0  0  0  0  0  0  0
    0.0000    0.8250    0.0000 C   0  0  2  0  0  0  0  0  0  0  0  0
    0.0000    0.0000    0.0000 C   0  0  0  0  0  0  0  0  0  0  0  0
    0.7145   -0.4125    0.0000 C   0  0  0  0  0  0  0  0  0  0  0  0
    1.4289    0.0000    0.0000 C   0  0  0  0  0  0  0  0  0  0  0  0
    2.1434   -0.4125    0.0000 C   0  0  0  0  0  0  0  0  0  0  0  0
    2.8579    0.0000    0.0000 C   0  0  0  0  0  0  0  0  0  0  0  0
    3.5724   -0.4125    0.0000 C   0  0  0  0  0  0  0  0  0  0  0  0
    3.5724   -1.2375    0.0000 N   0  0  0  0  0  0  0  0  0  0  0  0
    2.8579   -1.6500    0.0000 C   0  0  0  0  0  0  0  0  0  0  0  0
    2.8579   -2.4750    0.0000 N   0  0  0  0  0  0  0  0  0  0  0  0
    2.1434   -1.2375    0.0000 C   0  0  0  0  0  0  0  0  0  0  0  0
    1.4289   -1.6500    0.0000 C   0  0  0  0  0  0  0  0  0  0  0  0
    0.7145   -1.2375    0.0000 C   0  0  0  0  0  0  0  0  0  0  0  0
    0.0000   -1.6500    0.0000 O   0  0  0  0  0  0  0  0  0  0  0  0
   -0.7145   -1.2375    0.0000 C   0  0  0  0  0  0  0  0  0  0  0  0
   -0.3020   -0.5230    0.0000 F   0  0  0  0  0  0  0  0  0  0  0  0
   -1.1270   -1.9520    0.0000 F   0  0  0  0  0  0  0  0  0  0  0  0
   -1.4289   -0.8250    0.0000 F   0  0  0  0  0  0  0  0  0  0  0  0
   -0.7145    1.2375    0.0000 C   0  0  0  0  0  0  0  0  0  0  0  0
   -1.4289    0.8250    0.0000 O   0  0  0  0  0  0  0  0  0  0  0  0
   -0.7145    2.0625    0.0000 O   0  0  0  0  0  0  0  0  0  0  0  0
    0.8007    2.0580    0.0000 C   0  0  0  0  0  0  0  0  0  0  0  0
    0.1876    2.6100    0.0000 O   0  0  0  0  0  0  0  0  0  0  0  0
    3.9198    3.9093    0.0000 C   0  0  0  0  0  0  0  0  0  0  0  0
    4.7402    3.9956    0.0000 N   0  0  0  0  0  0  0  0  0  0  0  0
  1  2  1  0  0  0  0
  2  3  1  0  0  0  0
  2  4  1  0  0  0  0
  4  5  4  0  0  0  0
  5  6  4  0  0  0  0
  6  7  4  0  0  0  0
  7  8  1  0  0  0  0
  8  9  2  0  0  0  0
  8 10  2  0  0  0  0
  8 11  1  0  0  0  0
 12 11  1  1  0  0  0
 12 13  1  0  0  0  0
 13 14  1  0  0  0  0
 14 15  1  0  0  0  0
 16 15  1  6  0  0  0
 16 17  1  0  0  0  0
 17 18  1  0  0  0  0
 18 19  4  0  0  0  0
 19 20  4  0  0  0  0
 20 21  4  0  0  0  0
 21 22  4  0  0  0  0
 22 23  4  0  0  0  0
 23 24  4  0  0  0  0
 24 25  1  0  0  0  0
 24 26  4  0  0  0  0
 20 26  4  0  0  0  0
 26 27  4  0  0  0  0
 27 28  4  0  0  0  0
 18 28  4  0  0  0  0
 28 29  1  0  0  0  0
 29 30  1  0  0  0  0
 30 31  1  0  0  0  0
 30 32  1  0  0  0  0
 30 33  1  0  0  0  0
 16 34  1  0  0  0  0
 34 35  2  0  0  0  0
 34 36  1  0  0  0  0
 15 37  1  0  0  0  0
 12 37  1  0  0  0  0
 37 38  2  0  0  0  0
  7 39  4  0  0  0  0
 39 40  4  0  0  0  0
  4 40  4  0  0  0  0
M  END
>  <CdId>
358802

>  <Mol Weight>
582.552

>  <Formula>
C24H25F3N6O6S

>  <cmpd_chemblid>
CHEMBL3956707

>  <std_type>
Ki

>  <std_value>
65.0

>  <std_unit>
nM

>  <target_id>
CHEMBL2016

>  <target_name>
Coagulation factor IX

>  <organism>
Homo sapiens

>  <target_type>
SINGLE PROTEIN

$$$$

  Mrv0541 08052111042D          

 42 47  0  0  1  0            999 V2000
    3.9849    3.9849    0.0000 C   0  0  0  0  0  0  0  0  0  0  0  0
    4.3974    3.2704    0.0000 C   0  0  2  0  0  0  0  0  0  0  0  0
    5.2224    3.2704    0.0000 C   0  0  0  0  0  0  0  0  0  0  0  0
    5.6349    2.5559    0.0000 C   0  0  0  0  0  0  0  0  0  0  0  0
    6.4599    2.5559    0.0000 C   0  0  0  0  0  0  0  0  0  0  0  0
    6.8724    1.8414    0.0000 C   0  0  2  0  0  0  0  0  0  0  0  0
    7.6974    1.8414    0.0000 N   0  0  0  0  0  0  0  0  0  0  0  0
    8.1099    2.5559    0.0000 C   0  0  0  0  0  0  0  0  0  0  0  0
    8.9349    2.5559    0.0000 C   0  0  0  0  0  0  0  0  0  0  0  0
    9.3474    1.8414    0.0000 C   0  0  0  0  0  0  0  0  0  0  0  0
   10.1724    1.8414    0.0000 C   0  0  0  0  0  0  0  0  0  0  0  0
   10.5849    2.5559    0.0000 C   0  0  0  0  0  0  0  0  0  0  0  0
   10.1724    3.2704    0.0000 N   0  0  0  0  0  0  0  0  0  0  0  0
    9.3519    3.3566    0.0000 C   0  0  0  0  0  0  0  0  0  0  0  0
    9.1803    4.1636    0.0000 N   0  0  0  0  0  0  0  0  0  0  0  0
    9.8948    4.5761    0.0000 N   0  0  0  0  0  0  0  0  0  0  0  0
   10.5079    4.0241    0.0000 N   0  0  0  0  0  0  0  0  0  0  0  0
   11.4099    2.5559    0.0000 C   0  0  0  0  0  0  0  0  0  0  0  0
   11.8224    1.8414    0.0000 C   0  0  0  0  0  0  0  0  0  0  0  0
   11.4099    1.1270    0.0000 C   0  0  0  0  0  0  0  0  0  0  0  0
   11.8224    0.4125    0.0000 Cl  0  0  0  0  0  0  0  0  0  0  0  0
   10.5849    1.1270    0.0000 C   0  0  0  0  0  0  0  0  0  0  0  0
   10.1724    0.4125    0.0000 F   0  0  0  0  0  0  0  0  0  0  0  0
    8.9349    1.1270    0.0000 C   0  0  0  0  0  0  0  0  0  0  0  0
    8.1099    1.1270    0.0000 C   0  0  0  0  0  0  0  0  0  0  0  0
    7.6974    0.4125    0.0000 O   0  0  0  0  0  0  0  0  0  0  0  0
    6.4599    1.1270    0.0000 C   0  0  0  0  0  0  0  0  0  0  0  0
    5.6349    1.1270    0.0000 C   0  0  0  0  0  0  0  0  0  0  0  0
    5.2224    0.4125    0.0000 C   0  0  0  0  0  0  0  0  0  0  0  0
    5.6349   -0.3020    0.0000 C   0  0  0  0  0  0  0  0  0  0  0  0
    6.4599   -0.3020    0.0000 C   0  0  0  0  0  0  0  0  0  0  0  0
    6.8724    0.4125    0.0000 N   0  0  0  0  0  0  0  0  0  0  0  0
    4.3974    0.4125    0.0000 C   0  0  0  0  0  0  0  0  0  0  0  0
    3.9849   -0.3020    0.0000 C   0  0  0  0  0  0  0  0  0  0  0  0
    3.1599   -0.3020    0.0000 C   0  0  0  0  0  0  0  0  0  0  0  0
    2.7474   -1.0164    0.0000 F   0  0  0  0  0  0  0  0  0  0  0  0
    2.7474    0.4125    0.0000 C   0  0  0  0  0  0  0  0  0  0  0  0
    3.1599    1.1270    0.0000 C   0  0  0  0  0  0  0  0  0  0  0  0
    3.9849    1.1270    0.0000 C   0  0  0  0  0  0  0  0  0  0  0  0
    4.3974    1.8414    0.0000 N   0  0  0  0  0  0  0  0  0  0  0  0
    3.9849    2.5559    0.0000 C   0  0  0  0  0  0  0  0  0  0  0  0
    3.1599    2.5559    0.0000 O   0  0  0  0  0  0  0  0  0  0  0  0
  2  1  1  6  0  0  0
  2  3  1  0  0  0  0
  3  4  1  0  0  0  0
  4  5  1  0  0  0  0
  5  6  1  0  0  0  0
  6  7  1  6  0  0  0
  7  8  1  0  0  0  0
  8  9  1  0  0  0  0
  9 10  1  0  0  0  0
 10 11  1  0  0  0  0
 11 12  4  0  0  0  0
 12 13  1  0  0  0  0
 13 14  4  0  0  0  0
 14 15  4  0  0  0  0
 15 16  4  0  0  0  0
 16 17  4  0  0  0  0
 13 17  4  0  0  0  0
 12 18  4  0  0  0  0
 18 19  4  0  0  0  0
 19 20  4  0  0  0  0
 20 21  1  0  0  0  0
 20 22  4  0  0  0  0
 11 22  4  0  0  0  0
 22 23  1  0  0  0  0
 10 24  2  0  0  0  0
 24 25  1  0  0  0  0
  7 25  1  0  0  0  0
 25 26  2  0  0  0  0
  6 27  1  0  0  0  0
 27 28  4  0  0  0  0
 28 29  4  0  0  0  0
 29 30  4  0  0  0  0
 30 31  4  0  0  0  0
 31 32  4  0  0  0  0
 27 32  4  0  0  0  0
 29 33  1  0  0  0  0
 33 34  4  0  0  0  0
 34 35  4  0  0  0  0
 35 36  1  0  0  0  0
 35 37  4  0  0  0  0
 37 38  4  0  0  0  0
 38 39  4  0  0  0  0
 33 39  4  0  0  0  0
 39 40  1  0  0  0  0
 40 41  1  0  0  0  0
  2 41  1  0  0  0  0
 41 42  2  0  0  0  0
M  END
>  <CdId>
358803

>  <Mol Weight>
590.023

>  <Formula>
C30H26ClF2N7O2

>  <cmpd_chemblid>
CHEMBL4113941

>  <std_type>
Ki

>  <std_value>
0.05

>  <std_unit>
nM

>  <target_id>
CHEMBL2016

>  <target_name>
Coagulation factor IX

>  <organism>
Homo sapiens

>  <target_type>
SINGLE PROTEIN

$$$$

  Mrv0541 08052111042D          

 31 35  0  0  1  0            999 V2000
    0.8838   -2.1500    0.0000 N   0  0  0  0  0  0  0  0  0  0  0  0
    1.1387   -1.3654    0.0000 C   0  0  0  0  0  0  0  0  0  0  0  0
    0.6538   -0.6979    0.0000 N   0  0  0  0  0  0  0  0  0  0  0  0
    1.1387   -0.0305    0.0000 O   0  0  0  0  0  0  0  0  0  0  0  0
    1.9233   -0.2854    0.0000 C   0  0  0  0  0  0  0  0  0  0  0  0
    2.6378    0.1271    0.0000 C   0  0  0  0  0  0  0  0  0  0  0  0
    2.6378    0.9521    0.0000 N   0  0  0  0  0  0  0  0  0  0  0  0
    1.9704    1.4370    0.0000 C   0  0  0  0  0  0  0  0  0  0  0  0
    2.2253    2.2216    0.0000 C   0  0  0  0  0  0  0  0  0  0  0  0
    3.0503    2.2216    0.0000 C   0  0  1  0  0  0  0  0  0  0  0  0
    3.5352    2.8890    0.0000 N   0  0  0  0  0  0  0  0  0  0  0  0
    3.1997    3.6427    0.0000 C   0  0  0  0  0  0  0  0  0  0  0  0
    2.3792    3.7290    0.0000 O   0  0  0  0  0  0  0  0  0  0  0  0
    3.6846    4.3102    0.0000 C   0  0  0  0  0  0  0  0  0  0  0  0
    3.3490    5.0638    0.0000 C   0  0  0  0  0  0  0  0  0  0  0  0
    3.8340    5.7313    0.0000 C   0  0  0  0  0  0  0  0  0  0  0  0
    4.6544    5.6450    0.0000 C   0  0  0  0  0  0  0  0  0  0  0  0
    5.1394    6.3125    0.0000 N   0  0  0  0  0  0  0  0  0  0  0  0
    4.8844    7.0971    0.0000 C   0  0  0  0  0  0  0  0  0  0  0  0
    5.5519    7.5820    0.0000 N   0  0  0  0  0  0  0  0  0  0  0  0
    6.2193    7.0971    0.0000 N   0  0  0  0  0  0  0  0  0  0  0  0
    5.9644    6.3125    0.0000 C   0  0  0  0  0  0  0  0  0  0  0  0
    4.9900    4.8914    0.0000 C   0  0  0  0  0  0  0  0  0  0  0  0
    4.5051    4.2239    0.0000 C   0  0  0  0  0  0  0  0  0  0  0  0
    4.8406    3.4702    0.0000 Cl  0  0  0  0  0  0  0  0  0  0  0  0
    3.3053    1.4370    0.0000 C   0  0  0  0  0  0  0  0  0  0  0  0
    3.3523   -0.2854    0.0000 N   0  0  0  0  0  0  0  0  0  0  0  0
    3.3523   -1.1104    0.0000 C   0  0  0  0  0  0  0  0  0  0  0  0
    2.6378   -1.5229    0.0000 C   0  0  0  0  0  0  0  0  0  0  0  0
    2.6378   -2.3479    0.0000 Cl  0  0  0  0  0  0  0  0  0  0  0  0
    1.9233   -1.1104    0.0000 C   0  0  0  0  0  0  0  0  0  0  0  0
  1  2  1  0  0  0  0
  2  3  4  0  0  0  0
  3  4  4  0  0  0  0
  4  5  4  0  0  0  0
  5  6  4  0  0  0  0
  6  7  1  0  0  0  0
  7  8  1  0  0  0  0
  8  9  1  0  0  0  0
  9 10  1  0  0  0  0
 10 11  1  1  0  0  0
 11 12  1  0  0  0  0
 12 13  2  0  0  0  0
 12 14  1  0  0  0  0
 14 15  4  0  0  0  0
 15 16  4  0  0  0  0
 16 17  4  0  0  0  0
 17 18  1  0  0  0  0
 18 19  4  0  0  0  0
 19 20  4  0  0  0  0
 20 21  4  0  0  0  0
 21 22  4  0  0  0  0
 18 22  4  0  0  0  0
 17 23  4  0  0  0  0
 23 24  4  0  0  0  0
 14 24  4  0  0  0  0
 24 25  1  0  0  0  0
 10 26  1  0  0  0  0
  7 26  1  0  0  0  0
  6 27  4  0  0  0  0
 27 28  4  0  0  0  0
 28 29  4  0  0  0  0
 29 30  1  0  0  0  0
 29 31  4  0  0  0  0
  2 31  4  0  0  0  0
  5 31  4  0  0  0  0
M  END
>  <CdId>
358811

>  <Mol Weight>
459.289

>  <Formula>
C19H16Cl2N8O2

>  <cmpd_chemblid>
CHEMBL4082857

>  <std_type>
Ki

>  <std_value>
15.5

>  <std_unit>
nM

>  <target_id>
CHEMBL2016

>  <target_name>
Coagulation factor IX

>  <organism>
Homo sapiens

>  <target_type>
SINGLE PROTEIN

$$$$

  Mrv0541 08052111042D          

 42 47  0  0  0  0            999 V2000
   10.8455   -7.3273    0.0000 N   0  0  0  0  0  0  0  0  0  0  0  0
   10.1310   -7.7398    0.0000 C   0  0  0  0  0  0  0  0  0  0  0  0
   10.1310   -8.5648    0.0000 N   0  0  0  0  0  0  0  0  0  0  0  0
    9.4166   -7.3273    0.0000 C   0  0  0  0  0  0  0  0  0  0  0  0
    9.4166   -6.5023    0.0000 C   0  0  0  0  0  0  0  0  0  0  0  0
    8.7021   -6.0898    0.0000 C   0  0  0  0  0  0  0  0  0  0  0  0
    7.9876   -6.5023    0.0000 C   0  0  0  0  0  0  0  0  0  0  0  0
    7.2030   -6.2473    0.0000 N   0  0  0  0  0  0  0  0  0  0  0  0
    6.7181   -6.9148    0.0000 C   0  0  0  0  0  0  0  0  0  0  0  0
    7.2030   -7.5822    0.0000 C   0  0  0  0  0  0  0  0  0  0  0  0
    6.9481   -8.3668    0.0000 C   0  0  0  0  0  0  0  0  0  0  0  0
    6.1411   -8.5384    0.0000 C   0  0  0  0  0  0  0  0  0  0  0  0
    5.5891   -7.9253    0.0000 C   0  0  0  0  0  0  0  0  0  0  0  0
    4.7821   -8.0968    0.0000 C   0  0  0  0  0  0  0  0  0  0  0  0
    4.2301   -7.4837    0.0000 C   0  0  0  0  0  0  0  0  0  0  0  0
    4.4850   -6.6991    0.0000 C   0  0  0  0  0  0  0  0  0  0  0  0
    5.2920   -6.5275    0.0000 C   0  0  0  0  0  0  0  0  0  0  0  0
    5.8440   -7.1406    0.0000 C   0  0  0  0  0  0  0  0  0  0  0  0
    7.5001   -8.9799    0.0000 C   0  0  0  0  0  0  0  0  0  0  0  0
    8.3071   -8.8084    0.0000 O   0  0  0  0  0  0  0  0  0  0  0  0
    7.2452   -9.7645    0.0000 N   0  0  0  0  0  0  0  0  0  0  0  0
    7.7972  -10.3776    0.0000 C   0  0  0  0  0  0  0  0  0  0  0  0
    7.5423  -11.1623    0.0000 C   0  0  0  0  0  0  0  0  0  0  0  0
    8.0943  -11.7754    0.0000 C   0  0  0  0  0  0  0  0  0  0  0  0
    7.8394  -12.5600    0.0000 C   0  0  0  0  0  0  0  0  0  0  0  0
    7.0324  -12.7315    0.0000 C   0  0  0  0  0  0  0  0  0  0  0  0
    6.7774  -13.5161    0.0000 C   0  0  0  0  0  0  0  0  0  0  0  0
    5.9705  -13.6877    0.0000 O   0  0  0  0  0  0  0  0  0  0  0  0
    7.3295  -14.1292    0.0000 N   0  0  0  0  0  0  0  0  0  0  0  0
    7.0745  -14.9138    0.0000 C   0  0  0  0  0  0  0  0  0  0  0  0
    7.5595  -15.5813    0.0000 N   0  0  0  0  0  0  0  0  0  0  0  0
    7.0745  -16.2487    0.0000 C   0  0  0  0  0  0  0  0  0  0  0  0
    7.2461  -17.0557    0.0000 C   0  0  0  0  0  0  0  0  0  0  0  0
    6.6330  -17.6077    0.0000 C   0  0  0  0  0  0  0  0  0  0  0  0
    5.8483  -17.3528    0.0000 C   0  0  0  0  0  0  0  0  0  0  0  0
    5.6768  -16.5458    0.0000 C   0  0  0  0  0  0  0  0  0  0  0  0
    6.2899  -15.9938    0.0000 C   0  0  0  0  0  0  0  0  0  0  0  0
    6.2899  -15.1688    0.0000 N   0  0  0  0  0  0  0  0  0  0  0  0
    6.4803  -12.1184    0.0000 C   0  0  0  0  0  0  0  0  0  0  0  0
    6.7353  -11.3338    0.0000 C   0  0  0  0  0  0  0  0  0  0  0  0
    7.9876   -7.3273    0.0000 C   0  0  0  0  0  0  0  0  0  0  0  0
    8.7021   -7.7398    0.0000 C   0  0  0  0  0  0  0  0  0  0  0  0
  1  2  2  0  0  0  0
  2  3  1  0  0  0  0
  2  4  1  0  0  0  0
  4  5  4  0  0  0  0
  5  6  4  0  0  0  0
  6  7  4  0  0  0  0
  7  8  4  0  0  0  0
  8  9  4  0  0  0  0
  9 10  4  0  0  0  0
 10 11  1  0  0  0  0
 11 12  1  0  0  0  0
 12 13  1  0  0  0  0
 13 14  4  0  0  0  0
 14 15  4  0  0  0  0
 15 16  4  0  0  0  0
 16 17  4  0  0  0  0
 17 18  4  0  0  0  0
 13 18  4  0  0  0  0
 11 19  1  0  0  0  0
 19 20  2  0  0  0  0
 19 21  1  0  0  0  0
 21 22  1  0  0  0  0
 22 23  1  0  0  0  0
 23 24  4  0  0  0  0
 24 25  4  0  0  0  0
 25 26  4  0  0  0  0
 26 27  1  0  0  0  0
 27 28  2  0  0  0  0
 27 29  1  0  0  0  0
 29 30  1  0  0  0  0
 30 31  4  0  0  0  0
 31 32  4  0  0  0  0
 32 33  4  0  0  0  0
 33 34  4  0  0  0  0
 34 35  4  0  0  0  0
 35 36  4  0  0  0  0
 36 37  4  0  0  0  0
 32 37  4  0  0  0  0
 37 38  4  0  0  0  0
 30 38  4  0  0  0  0
 26 39  4  0  0  0  0
 39 40  4  0  0  0  0
 23 40  4  0  0  0  0
 10 41  4  0  0  0  0
  7 41  4  0  0  0  0
 41 42  4  0  0  0  0
  4 42  4  0  0  0  0
M  STY  2   1 DAT   2 DAT
M  SAL   1  1   8
M  SDT   1 MRV_IMPLICIT_H                                        
M  SDD   1     0.0000    0.0000    DR    ALL  0       0  
M  SED   1 IMPL_H1
M  SAL   2  1  38
M  SDT   2 MRV_IMPLICIT_H                                        
M  SDD   2     0.0000    0.0000    DR    ALL  0       0  
M  SED   2 IMPL_H1
M  END
>  <CdId>
358812

>  <Mol Weight>
555.6291

>  <Formula>
C33H29N7O2

>  <cmpd_chemblid>
CHEMBL359573

>  <std_type>
Ki

>  <std_value>
930.0

>  <std_unit>
nM

>  <target_id>
CHEMBL2016

>  <target_name>
Coagulation factor IX

>  <organism>
Homo sapiens

>  <target_type>
SINGLE PROTEIN

$$$$

  Mrv0541 08052111042D          

 31 35  0  0  0  0            999 V2000
    4.0668    2.3479    0.0000 C   0  0  0  0  0  0  0  0  0  0  0  0
    3.3523    1.9354    0.0000 C   0  0  0  0  0  0  0  0  0  0  0  0
    3.3523    1.1104    0.0000 C   0  0  0  0  0  0  0  0  0  0  0  0
    2.6378    0.6979    0.0000 C   0  0  0  0  0  0  0  0  0  0  0  0
    2.6378   -0.1271    0.0000 N   0  0  0  0  0  0  0  0  0  0  0  0
    3.3053   -0.6120    0.0000 C   0  0  0  0  0  0  0  0  0  0  0  0
    3.0503   -1.3966    0.0000 C   0  0  0  0  0  0  0  0  0  0  0  0
    2.2253   -1.3966    0.0000 C   0  0  0  0  0  0  0  0  0  0  0  0
    1.7404   -2.0640    0.0000 N   0  0  0  0  0  0  0  0  0  0  0  0
    2.0759   -2.8177    0.0000 C   0  0  0  0  0  0  0  0  0  0  0  0
    2.8964   -2.9040    0.0000 O   0  0  0  0  0  0  0  0  0  0  0  0
    1.5910   -3.4852    0.0000 C   0  0  0  0  0  0  0  0  0  0  0  0
    1.9266   -4.2388    0.0000 C   0  0  0  0  0  0  0  0  0  0  0  0
    1.4417   -4.9063    0.0000 C   0  0  0  0  0  0  0  0  0  0  0  0
    0.6212   -4.8200    0.0000 C   0  0  0  0  0  0  0  0  0  0  0  0
    0.1363   -5.4875    0.0000 N   0  0  0  0  0  0  0  0  0  0  0  0
    0.3912   -6.2721    0.0000 C   0  0  0  0  0  0  0  0  0  0  0  0
   -0.2762   -6.7570    0.0000 N   0  0  0  0  0  0  0  0  0  0  0  0
   -0.9437   -6.2721    0.0000 N   0  0  0  0  0  0  0  0  0  0  0  0
   -0.6887   -5.4875    0.0000 C   0  0  0  0  0  0  0  0  0  0  0  0
    0.2856   -4.0664    0.0000 C   0  0  0  0  0  0  0  0  0  0  0  0
    0.7705   -3.3989    0.0000 C   0  0  0  0  0  0  0  0  0  0  0  0
    0.4350   -2.6452    0.0000 Cl  0  0  0  0  0  0  0  0  0  0  0  0
    1.9704   -0.6120    0.0000 C   0  0  0  0  0  0  0  0  0  0  0  0
    1.9233    1.1104    0.0000 C   0  0  0  0  0  0  0  0  0  0  0  0
    1.1387    0.8555    0.0000 O   0  0  0  0  0  0  0  0  0  0  0  0
    0.6538    1.5229    0.0000 N   0  0  0  0  0  0  0  0  0  0  0  0
    1.1387    2.1904    0.0000 C   0  0  0  0  0  0  0  0  0  0  0  0
    0.8838    2.9750    0.0000 N   0  0  0  0  0  0  0  0  0  0  0  0
    1.9233    1.9354    0.0000 C   0  0  0  0  0  0  0  0  0  0  0  0
    2.6378    2.3479    0.0000 C   0  0  0  0  0  0  0  0  0  0  0  0
  1  2  1  0  0  0  0
  2  3  4  0  0  0  0
  3  4  4  0  0  0  0
  4  5  1  0  0  0  0
  5  6  1  0  0  0  0
  6  7  1  0  0  0  0
  7  8  1  0  0  0  0
  8  9  1  0  0  0  0
  9 10  1  0  0  0  0
 10 11  2  0  0  0  0
 10 12  1  0  0  0  0
 12 13  4  0  0  0  0
 13 14  4  0  0  0  0
 14 15  4  0  0  0  0
 15 16  1  0  0  0  0
 16 17  4  0  0  0  0
 17 18  4  0  0  0  0
 18 19  4  0  0  0  0
 19 20  4  0  0  0  0
 16 20  4  0  0  0  0
 15 21  4  0  0  0  0
 21 22  4  0  0  0  0
 12 22  4  0  0  0  0
 22 23  1  0  0  0  0
  8 24  1  0  0  0  0
  5 24  1  0  0  0  0
  4 25  4  0  0  0  0
 25 26  4  0  0  0  0
 26 27  4  0  0  0  0
 27 28  4  0  0  0  0
 28 29  1  0  0  0  0
 28 30  4  0  0  0  0
 25 30  4  0  0  0  0
 30 31  4  0  0  0  0
  2 31  4  0  0  0  0
M  END
>  <CdId>
358813

>  <Mol Weight>
437.882

>  <Formula>
C21H20ClN7O2

>  <cmpd_chemblid>
CHEMBL4069648

>  <std_type>
Ki

>  <std_value>
25.0

>  <std_unit>
nM

>  <target_id>
CHEMBL2016

>  <target_name>
Coagulation factor IX

>  <organism>
Homo sapiens

>  <target_type>
SINGLE PROTEIN

$$$$

  Mrv0541 08052111042D          

 36 41  0  0  1  0            999 V2000
    4.7674    0.7556    0.0000 C   0  0  0  0  0  0  0  0  0  0  0  0
    3.9604    0.5840    0.0000 C   0  0  0  0  0  0  0  0  0  0  0  0
    3.7054   -0.2006    0.0000 C   0  0  0  0  0  0  0  0  0  0  0  0
    2.8985   -0.3721    0.0000 C   0  0  0  0  0  0  0  0  0  0  0  0
    2.3464    0.2410    0.0000 C   0  0  0  0  0  0  0  0  0  0  0  0
    2.6014    1.0256    0.0000 C   0  0  0  0  0  0  0  0  0  0  0  0
    3.4084    1.1971    0.0000 C   0  0  0  0  0  0  0  0  0  0  0  0
    1.9339    1.5105    0.0000 N   0  0  0  0  0  0  0  0  0  0  0  0
    1.2665    1.0256    0.0000 C   0  0  0  0  0  0  0  0  0  0  0  0
    1.5214    0.2410    0.0000 N   0  0  0  0  0  0  0  0  0  0  0  0
    0.9694   -0.3721    0.0000 C   0  0  0  0  0  0  0  0  0  0  0  0
    0.1624   -0.2006    0.0000 C   0  0  1  0  0  0  0  0  0  0  0  0
    0.1336   -1.0251    0.0000 N   0  0  0  0  0  0  0  0  0  0  0  0
    0.8333   -1.4623    0.0000 C   0  0  0  0  0  0  0  0  0  0  0  0
    1.5617   -1.0750    0.0000 O   0  0  0  0  0  0  0  0  0  0  0  0
    0.8045   -2.2868    0.0000 C   0  0  0  0  0  0  0  0  0  0  0  0
    1.5041   -2.7240    0.0000 C   0  0  0  0  0  0  0  0  0  0  0  0
    1.4753   -3.5485    0.0000 C   0  0  0  0  0  0  0  0  0  0  0  0
    0.7469   -3.9358    0.0000 C   0  0  0  0  0  0  0  0  0  0  0  0
    0.7181   -4.7603    0.0000 N   0  0  0  0  0  0  0  0  0  0  0  0
    1.3682   -5.2682    0.0000 C   0  0  0  0  0  0  0  0  0  0  0  0
    1.0861   -6.0434    0.0000 N   0  0  0  0  0  0  0  0  0  0  0  0
    0.2616   -6.0146    0.0000 C   0  0  0  0  0  0  0  0  0  0  0  0
   -0.2464   -6.6647    0.0000 C   0  0  0  0  0  0  0  0  0  0  0  0
    0.0342   -5.2216    0.0000 N   0  0  0  0  0  0  0  0  0  0  0  0
    0.0473   -3.4986    0.0000 C   0  0  0  0  0  0  0  0  0  0  0  0
    0.0761   -2.6741    0.0000 C   0  0  0  0  0  0  0  0  0  0  0  0
   -0.6236   -2.2369    0.0000 Cl  0  0  0  0  0  0  0  0  0  0  0  0
   -0.6545   -0.3154    0.0000 C   0  0  0  0  0  0  0  0  0  0  0  0
   -0.9636   -1.0803    0.0000 C   0  0  0  0  0  0  0  0  0  0  0  0
   -1.7806   -1.1952    0.0000 C   0  0  0  0  0  0  0  0  0  0  0  0
   -2.2885   -0.5450    0.0000 C   0  0  0  0  0  0  0  0  0  0  0  0
   -1.9794    0.2199    0.0000 C   0  0  0  0  0  0  0  0  0  0  0  0
   -1.1625    0.3347    0.0000 C   0  0  0  0  0  0  0  0  0  0  0  0
   -0.0925    0.5840    0.0000 C   0  0  0  0  0  0  0  0  0  0  0  0
    0.4595    1.1971    0.0000 C   0  0  0  0  0  0  0  0  0  0  0  0
  1  2  1  0  0  0  0
  2  3  4  0  0  0  0
  3  4  4  0  0  0  0
  4  5  4  0  0  0  0
  5  6  4  0  0  0  0
  6  7  4  0  0  0  0
  2  7  4  0  0  0  0
  6  8  4  0  0  0  0
  8  9  4  0  0  0  0
  9 10  4  0  0  0  0
  5 10  4  0  0  0  0
 10 11  1  0  0  0  0
 11 12  1  0  0  0  0
 12 13  1  6  0  0  0
 13 14  1  0  0  0  0
 14 15  2  0  0  0  0
 14 16  1  0  0  0  0
 16 17  4  0  0  0  0
 17 18  4  0  0  0  0
 18 19  4  0  0  0  0
 19 20  1  0  0  0  0
 20 21  4  0  0  0  0
 21 22  4  0  0  0  0
 22 23  4  0  0  0  0
 23 24  1  0  0  0  0
 23 25  4  0  0  0  0
 20 25  4  0  0  0  0
 19 26  4  0  0  0  0
 26 27  4  0  0  0  0
 16 27  4  0  0  0  0
 27 28  1  0  0  0  0
 12 29  1  1  0  0  0
 29 30  4  0  0  0  0
 30 31  4  0  0  0  0
 31 32  4  0  0  0  0
 32 33  4  0  0  0  0
 33 34  4  0  0  0  0
 29 34  4  0  0  0  0
 12 35  1  0  0  0  0
 35 36  1  0  0  0  0
  9 36  1  0  0  0  0
M  END
>  <CdId>
358814

>  <Mol Weight>
496.991

>  <Formula>
C28H25ClN6O

>  <cmpd_chemblid>
CHEMBL3628832

>  <std_type>
Ki

>  <std_value>
5.9

>  <std_unit>
nM

>  <target_id>
CHEMBL2016

>  <target_name>
Coagulation factor IX

>  <organism>
Homo sapiens

>  <target_type>
SINGLE PROTEIN

$$$$

  Mrv0541 08052111042D          

 40 44  0  0  1  0            999 V2000
    8.6329   -2.2539    0.0000 C   0  0  0  0  0  0  0  0  0  0  0  0
    8.2204   -1.5395    0.0000 O   0  0  0  0  0  0  0  0  0  0  0  0
    7.3954   -1.5395    0.0000 C   0  0  0  0  0  0  0  0  0  0  0  0
    6.9829   -2.2539    0.0000 O   0  0  0  0  0  0  0  0  0  0  0  0
    6.9829   -0.8250    0.0000 N   0  0  0  0  0  0  0  0  0  0  0  0
    6.1579   -0.8250    0.0000 C   0  0  0  0  0  0  0  0  0  0  0  0
    5.7454   -0.1105    0.0000 C   0  0  0  0  0  0  0  0  0  0  0  0
    4.9204   -0.1105    0.0000 C   0  0  0  0  0  0  0  0  0  0  0  0
    4.5079   -0.8250    0.0000 C   0  0  0  0  0  0  0  0  0  0  0  0
    4.9204   -1.5395    0.0000 C   0  0  0  0  0  0  0  0  0  0  0  0
    5.7454   -1.5395    0.0000 C   0  0  0  0  0  0  0  0  0  0  0  0
    4.5079   -2.2539    0.0000 N   0  0  0  0  0  0  0  0  0  0  0  0
    4.9204   -2.9684    0.0000 C   0  0  0  0  0  0  0  0  0  0  0  0
    5.7454   -2.9684    0.0000 O   0  0  0  0  0  0  0  0  0  0  0  0
    4.5079   -3.6829    0.0000 C   0  0  2  0  0  0  0  0  0  0  0  0
    4.9204   -4.3974    0.0000 C   0  0  0  0  0  0  0  0  0  0  0  0
    3.6829   -3.6829    0.0000 C   0  0  0  0  0  0  0  0  0  0  0  0
    3.2704   -2.9684    0.0000 C   0  0  0  0  0  0  0  0  0  0  0  0
    2.4454   -2.9684    0.0000 C   0  0  0  0  0  0  0  0  0  0  0  0
    2.0329   -2.2539    0.0000 C   0  0  2  0  0  0  0  0  0  0  0  0
    1.2079   -2.2539    0.0000 N   0  0  0  0  0  0  0  0  0  0  0  0
    0.7954   -2.9684    0.0000 C   0  0  0  0  0  0  0  0  0  0  0  0
   -0.0296   -2.9684    0.0000 C   0  0  0  0  0  0  0  0  0  0  0  0
   -0.4421   -2.2539    0.0000 C   0  0  0  0  0  0  0  0  0  0  0  0
   -1.2671   -2.2539    0.0000 C   0  0  0  0  0  0  0  0  0  0  0  0
   -1.6796   -2.9684    0.0000 C   0  0  0  0  0  0  0  0  0  0  0  0
   -2.5046   -2.9684    0.0000 C   0  0  0  0  0  0  0  0  0  0  0  0
   -2.9171   -2.2539    0.0000 C   0  0  0  0  0  0  0  0  0  0  0  0
   -2.5046   -1.5395    0.0000 C   0  0  0  0  0  0  0  0  0  0  0  0
   -2.9171   -0.8250    0.0000 Cl  0  0  0  0  0  0  0  0  0  0  0  0
   -1.6796   -1.5395    0.0000 N   0  0  0  0  0  0  0  0  0  0  0  0
   -0.0296   -1.5395    0.0000 C   0  0  0  0  0  0  0  0  0  0  0  0
    0.7954   -1.5395    0.0000 C   0  0  0  0  0  0  0  0  0  0  0  0
    1.2079   -0.8250    0.0000 O   0  0  0  0  0  0  0  0  0  0  0  0
    2.4454   -1.5395    0.0000 C   0  0  0  0  0  0  0  0  0  0  0  0
    3.2704   -1.5395    0.0000 C   0  0  0  0  0  0  0  0  0  0  0  0
    3.6829   -0.8250    0.0000 C   0  0  0  0  0  0  0  0  0  0  0  0
    3.2704   -0.1105    0.0000 C   0  0  0  0  0  0  0  0  0  0  0  0
    2.4454   -0.1105    0.0000 C   0  0  0  0  0  0  0  0  0  0  0  0
    2.0329   -0.8250    0.0000 N   0  0  0  0  0  0  0  0  0  0  0  0
  1  2  1  0  0  0  0
  2  3  1  0  0  0  0
  3  4  2  0  0  0  0
  3  5  1  0  0  0  0
  5  6  1  0  0  0  0
  6  7  4  0  0  0  0
  7  8  4  0  0  0  0
  8  9  4  0  0  0  0
  9 10  4  0  0  0  0
 10 11  4  0  0  0  0
  6 11  4  0  0  0  0
 10 12  1  0  0  0  0
 12 13  1  0  0  0  0
 13 14  2  0  0  0  0
 13 15  1  0  0  0  0
 15 16  1  6  0  0  0
 15 17  1  0  0  0  0
 17 18  1  0  0  0  0
 18 19  1  0  0  0  0
 19 20  1  0  0  0  0
 20 21  1  6  0  0  0
 21 22  1  0  0  0  0
 22 23  1  0  0  0  0
 23 24  1  0  0  0  0
 24 25  1  0  0  0  0
 25 26  4  0  0  0  0
 26 27  4  0  0  0  0
 27 28  4  0  0  0  0
 28 29  4  0  0  0  0
 29 30  1  0  0  0  0
 29 31  4  0  0  0  0
 25 31  4  0  0  0  0
 24 32  2  0  0  0  0
 32 33  1  0  0  0  0
 21 33  1  0  0  0  0
 33 34  2  0  0  0  0
 20 35  1  0  0  0  0
 35 36  4  0  0  0  0
 36 37  4  0  0  0  0
  9 37  1  0  0  0  0
 37 38  4  0  0  0  0
 38 39  4  0  0  0  0
 39 40  4  0  0  0  0
 35 40  4  0  0  0  0
M  END
>  <CdId>
358815

>  <Mol Weight>
560.043

>  <Formula>
C30H30ClN5O4

>  <cmpd_chemblid>
CHEMBL4108314

>  <std_type>
Ki

>  <std_value>
74.94

>  <std_unit>
nM

>  <target_id>
CHEMBL2016

>  <target_name>
Coagulation factor IX

>  <organism>
Homo sapiens

>  <target_type>
SINGLE PROTEIN

$$$$

  Mrv0541 08052111042D          

 42 46  0  0  1  0            999 V2000
    8.6329   -2.2539    0.0000 C   0  0  0  0  0  0  0  0  0  0  0  0
    8.2204   -1.5395    0.0000 O   0  0  0  0  0  0  0  0  0  0  0  0
    7.3954   -1.5395    0.0000 C   0  0  0  0  0  0  0  0  0  0  0  0
    6.9829   -2.2539    0.0000 O   0  0  0  0  0  0  0  0  0  0  0  0
    6.9829   -0.8250    0.0000 N   0  0  0  0  0  0  0  0  0  0  0  0
    6.1579   -0.8250    0.0000 C   0  0  0  0  0  0  0  0  0  0  0  0
    5.7454   -0.1105    0.0000 C   0  0  0  0  0  0  0  0  0  0  0  0
    4.9204   -0.1105    0.0000 C   0  0  0  0  0  0  0  0  0  0  0  0
    4.5079   -0.8250    0.0000 C   0  0  0  0  0  0  0  0  0  0  0  0
    4.9204   -1.5395    0.0000 C   0  0  0  0  0  0  0  0  0  0  0  0
    5.7454   -1.5395    0.0000 C   0  0  0  0  0  0  0  0  0  0  0  0
    4.5079   -2.2539    0.0000 N   0  0  0  0  0  0  0  0  0  0  0  0
    4.9204   -2.9684    0.0000 C   0  0  0  0  0  0  0  0  0  0  0  0
    5.7454   -2.9684    0.0000 O   0  0  0  0  0  0  0  0  0  0  0  0
    4.5079   -3.6829    0.0000 C   0  0  2  0  0  0  0  0  0  0  0  0
    4.9204   -4.3974    0.0000 C   0  0  0  0  0  0  0  0  0  0  0  0
    3.6829   -3.6829    0.0000 C   0  0  0  0  0  0  0  0  0  0  0  0
    3.2704   -2.9684    0.0000 C   0  0  0  0  0  0  0  0  0  0  0  0
    2.4454   -2.9684    0.0000 C   0  0  0  0  0  0  0  0  0  0  0  0
    2.0329   -2.2539    0.0000 C   0  0  2  0  0  0  0  0  0  0  0  0
    1.2079   -2.2539    0.0000 N   0  0  0  0  0  0  0  0  0  0  0  0
    0.7954   -2.9684    0.0000 C   0  0  0  0  0  0  0  0  0  0  0  0
   -0.0296   -2.9684    0.0000 C   0  0  0  0  0  0  0  0  0  0  0  0
   -0.4421   -2.2539    0.0000 C   0  0  0  0  0  0  0  0  0  0  0  0
   -1.2671   -2.2539    0.0000 C   0  0  0  0  0  0  0  0  0  0  0  0
   -1.6796   -2.9684    0.0000 C   0  0  0  0  0  0  0  0  0  0  0  0
   -1.2671   -3.6829    0.0000 F   0  0  0  0  0  0  0  0  0  0  0  0
   -2.5046   -2.9684    0.0000 C   0  0  0  0  0  0  0  0  0  0  0  0
   -2.9171   -2.2539    0.0000 C   0  0  0  0  0  0  0  0  0  0  0  0
   -2.5046   -1.5395    0.0000 C   0  0  0  0  0  0  0  0  0  0  0  0
   -2.9171   -0.8250    0.0000 C   0  0  0  0  0  0  0  0  0  0  0  0
   -1.6796   -1.5395    0.0000 C   0  0  0  0  0  0  0  0  0  0  0  0
   -1.2671   -0.8250    0.0000 F   0  0  0  0  0  0  0  0  0  0  0  0
   -0.0296   -1.5395    0.0000 C   0  0  0  0  0  0  0  0  0  0  0  0
    0.7954   -1.5395    0.0000 C   0  0  0  0  0  0  0  0  0  0  0  0
    1.2079   -0.8250    0.0000 O   0  0  0  0  0  0  0  0  0  0  0  0
    2.4454   -1.5395    0.0000 C   0  0  0  0  0  0  0  0  0  0  0  0
    3.2704   -1.5395    0.0000 C   0  0  0  0  0  0  0  0  0  0  0  0
    3.6829   -0.8250    0.0000 C   0  0  0  0  0  0  0  0  0  0  0  0
    3.2704   -0.1105    0.0000 C   0  0  0  0  0  0  0  0  0  0  0  0
    2.4454   -0.1105    0.0000 C   0  0  0  0  0  0  0  0  0  0  0  0
    2.0329   -0.8250    0.0000 N   0  0  0  0  0  0  0  0  0  0  0  0
  1  2  1  0  0  0  0
  2  3  1  0  0  0  0
  3  4  2  0  0  0  0
  3  5  1  0  0  0  0
  5  6  1  0  0  0  0
  6  7  4  0  0  0  0
  7  8  4  0  0  0  0
  8  9  4  0  0  0  0
  9 10  4  0  0  0  0
 10 11  4  0  0  0  0
  6 11  4  0  0  0  0
 10 12  1  0  0  0  0
 12 13  1  0  0  0  0
 13 14  2  0  0  0  0
 13 15  1  0  0  0  0
 15 16  1  6  0  0  0
 15 17  1  0  0  0  0
 17 18  1  0  0  0  0
 18 19  1  0  0  0  0
 19 20  1  0  0  0  0
 20 21  1  6  0  0  0
 21 22  1  0  0  0  0
 22 23  1  0  0  0  0
 23 24  1  0  0  0  0
 24 25  1  0  0  0  0
 25 26  4  0  0  0  0
 26 27  1  0  0  0  0
 26 28  4  0  0  0  0
 28 29  4  0  0  0  0
 29 30  4  0  0  0  0
 30 31  1  0  0  0  0
 30 32  4  0  0  0  0
 25 32  4  0  0  0  0
 32 33  1  0  0  0  0
 24 34  2  0  0  0  0
 34 35  1  0  0  0  0
 21 35  1  0  0  0  0
 35 36  2  0  0  0  0
 20 37  1  0  0  0  0
 37 38  4  0  0  0  0
 38 39  4  0  0  0  0
  9 39  1  0  0  0  0
 39 40  4  0  0  0  0
 40 41  4  0  0  0  0
 41 42  4  0  0  0  0
 37 42  4  0  0  0  0
M  END
>  <CdId>
358816

>  <Mol Weight>
574.6177

>  <Formula>
C32H32F2N4O4

>  <cmpd_chemblid>
CHEMBL4109841

>  <std_type>
Ki

>  <std_value>
1.42

>  <std_unit>
nM

>  <target_id>
CHEMBL2016

>  <target_name>
Coagulation factor IX

>  <organism>
Homo sapiens

>  <target_type>
SINGLE PROTEIN

$$$$

  Mrv0541 08052111042D          

 41 45  0  0  1  0            999 V2000
   -0.7145   -0.4125    0.0000 C   0  0  0  0  0  0  0  0  0  0  0  0
    0.0000    0.0000    0.0000 O   0  0  0  0  0  0  0  0  0  0  0  0
    0.7145   -0.4125    0.0000 C   0  0  0  0  0  0  0  0  0  0  0  0
    1.4289    0.0000    0.0000 C   0  0  0  0  0  0  0  0  0  0  0  0
    2.1434   -0.4125    0.0000 C   0  0  0  0  0  0  0  0  0  0  0  0
    2.8579    0.0000    0.0000 C   0  0  0  0  0  0  0  0  0  0  0  0
    2.8579    0.8250    0.0000 N   0  0  0  0  0  0  0  0  0  0  0  0
    3.5724   -0.4125    0.0000 N   0  0  0  0  0  0  0  0  0  0  0  0
    3.5724   -1.2375    0.0000 C   0  0  0  0  0  0  0  0  0  0  0  0
    2.8579   -1.6500    0.0000 C   0  0  0  0  0  0  0  0  0  0  0  0
    2.1434   -1.2375    0.0000 C   0  0  0  0  0  0  0  0  0  0  0  0
    1.4289   -1.6500    0.0000 C   0  0  0  0  0  0  0  0  0  0  0  0
    0.7145   -1.2375    0.0000 C   0  0  0  0  0  0  0  0  0  0  0  0
    0.0000   -1.6500    0.0000 C   0  0  0  0  0  0  0  0  0  0  0  0
    0.0000   -2.4750    0.0000 C   0  0  2  0  0  0  0  0  0  0  0  0
   -0.7145   -2.8875    0.0000 C   0  0  0  0  0  0  0  0  0  0  0  0
   -0.7145   -3.7125    0.0000 O   0  0  0  0  0  0  0  0  0  0  0  0
   -1.4289   -2.4750    0.0000 O   0  0  0  0  0  0  0  0  0  0  0  0
   -2.1434   -2.8875    0.0000 C   0  0  0  0  0  0  0  0  0  0  0  0
   -2.8579   -2.4750    0.0000 C   0  0  0  0  0  0  0  0  0  0  0  0
   -3.6548   -2.6885    0.0000 C   0  0  0  0  0  0  0  0  0  0  0  0
   -3.8683   -1.8916    0.0000 C   0  0  0  0  0  0  0  0  0  0  0  0
   -3.0714   -1.6781    0.0000 C   0  0  0  0  0  0  0  0  0  0  0  0
    0.7145   -2.8875    0.0000 N   0  0  0  0  0  0  0  0  0  0  0  0
    1.4681   -2.5519    0.0000 C   0  0  0  0  0  0  0  0  0  0  0  0
    2.0202   -3.1650    0.0000 C   0  0  0  0  0  0  0  0  0  0  0  0
    1.6077   -3.8795    0.0000 C   0  0  2  0  0  0  0  0  0  0  0  0
    1.9432   -4.6332    0.0000 N   0  0  0  0  0  0  0  0  0  0  0  0
    2.7637   -4.7194    0.0000 S   0  0  0  0  0  0  0  0  0  0  0  0
    2.6775   -5.5399    0.0000 O   0  0  0  0  0  0  0  0  0  0  0  0
    2.8500   -3.8989    0.0000 O   0  0  0  0  0  0  0  0  0  0  0  0
    3.5842   -4.8057    0.0000 C   0  0  0  0  0  0  0  0  0  0  0  0
    4.1362   -4.1926    0.0000 C   0  0  0  0  0  0  0  0  0  0  0  0
    4.8899   -4.5281    0.0000 N   0  0  0  0  0  0  0  0  0  0  0  0
    4.8037   -5.3486    0.0000 C   0  0  0  0  0  0  0  0  0  0  0  0
    5.4168   -5.9006    0.0000 N   0  0  0  0  0  0  0  0  0  0  0  0
    6.2014   -5.6457    0.0000 C   0  0  0  0  0  0  0  0  0  0  0  0
    5.2452   -6.7076    0.0000 C   0  0  0  0  0  0  0  0  0  0  0  0
    3.9967   -5.5201    0.0000 S   0  0  0  0  0  0  0  0  0  0  0  0
    0.8007   -3.7080    0.0000 C   0  0  0  0  0  0  0  0  0  0  0  0
    0.1876   -4.2600    0.0000 O   0  0  0  0  0  0  0  0  0  0  0  0
  1  2  1  0  0  0  0
  2  3  1  0  0  0  0
  3  4  4  0  0  0  0
  4  5  4  0  0  0  0
  5  6  4  0  0  0  0
  6  7  1  0  0  0  0
  6  8  4  0  0  0  0
  8  9  4  0  0  0  0
  9 10  4  0  0  0  0
 10 11  4  0  0  0  0
  5 11  4  0  0  0  0
 11 12  4  0  0  0  0
 12 13  4  0  0  0  0
  3 13  4  0  0  0  0
 13 14  1  0  0  0  0
 14 15  1  0  0  0  0
 15 16  1  0  0  0  0
 16 17  2  0  0  0  0
 16 18  1  0  0  0  0
 18 19  1  0  0  0  0
 19 20  1  0  0  0  0
 20 21  1  0  0  0  0
 21 22  1  0  0  0  0
 22 23  1  0  0  0  0
 20 23  1  0  0  0  0
 15 24  1  1  0  0  0
 24 25  1  0  0  0  0
 25 26  1  0  0  0  0
 26 27  1  0  0  0  0
 27 28  1  6  0  0  0
 28 29  1  0  0  0  0
 29 30  2  0  0  0  0
 29 31  2  0  0  0  0
 29 32  1  0  0  0  0
 32 33  4  0  0  0  0
 33 34  4  0  0  0  0
 34 35  4  0  0  0  0
 35 36  1  0  0  0  0
 36 37  1  0  0  0  0
 36 38  1  0  0  0  0
 35 39  4  0  0  0  0
 32 39  4  0  0  0  0
 27 40  1  0  0  0  0
 24 40  1  0  0  0  0
 40 41  2  0  0  0  0
M  END
>  <CdId>
358817

>  <Mol Weight>
602.725

>  <Formula>
C27H34N6O6S2

>  <cmpd_chemblid>
CHEMBL3970060

>  <std_type>
Ki

>  <std_value>
650.0

>  <std_unit>
nM

>  <target_id>
CHEMBL2016

>  <target_name>
Coagulation factor IX

>  <organism>
Homo sapiens

>  <target_type>
SINGLE PROTEIN

$$$$

  Mrv0541 08052111042D          

 41 45  0  0  1  0            999 V2000
    8.6329   -2.2539    0.0000 C   0  0  0  0  0  0  0  0  0  0  0  0
    8.2204   -1.5395    0.0000 O   0  0  0  0  0  0  0  0  0  0  0  0
    7.3954   -1.5395    0.0000 C   0  0  0  0  0  0  0  0  0  0  0  0
    6.9829   -2.2539    0.0000 O   0  0  0  0  0  0  0  0  0  0  0  0
    6.9829   -0.8250    0.0000 N   0  0  0  0  0  0  0  0  0  0  0  0
    6.1579   -0.8250    0.0000 C   0  0  0  0  0  0  0  0  0  0  0  0
    5.7454   -0.1105    0.0000 C   0  0  0  0  0  0  0  0  0  0  0  0
    4.9204   -0.1105    0.0000 C   0  0  0  0  0  0  0  0  0  0  0  0
    4.5079   -0.8250    0.0000 C   0  0  0  0  0  0  0  0  0  0  0  0
    4.9204   -1.5395    0.0000 C   0  0  0  0  0  0  0  0  0  0  0  0
    5.7454   -1.5395    0.0000 C   0  0  0  0  0  0  0  0  0  0  0  0
    4.5079   -2.2539    0.0000 C   0  0  0  0  0  0  0  0  0  0  0  0
    3.6829   -2.2539    0.0000 O   0  0  0  0  0  0  0  0  0  0  0  0
    4.9204   -2.9684    0.0000 N   0  0  0  0  0  0  0  0  0  0  0  0
    4.5079   -3.6829    0.0000 C   0  0  0  0  0  0  0  0  0  0  0  0
    3.6829   -3.6829    0.0000 C   0  0  0  0  0  0  0  0  0  0  0  0
    3.2704   -2.9684    0.0000 C   0  0  0  0  0  0  0  0  0  0  0  0
    2.4454   -2.9684    0.0000 C   0  0  0  0  0  0  0  0  0  0  0  0
    2.0329   -2.2539    0.0000 C   0  0  2  0  0  0  0  0  0  0  0  0
    1.2079   -2.2539    0.0000 N   0  0  0  0  0  0  0  0  0  0  0  0
    0.7954   -2.9684    0.0000 C   0  0  0  0  0  0  0  0  0  0  0  0
   -0.0296   -2.9684    0.0000 C   0  0  0  0  0  0  0  0  0  0  0  0
   -0.4421   -2.2539    0.0000 C   0  0  0  0  0  0  0  0  0  0  0  0
   -1.2671   -2.2539    0.0000 C   0  0  0  0  0  0  0  0  0  0  0  0
   -1.6796   -2.9684    0.0000 C   0  0  0  0  0  0  0  0  0  0  0  0
   -1.2671   -3.6829    0.0000 F   0  0  0  0  0  0  0  0  0  0  0  0
   -2.5046   -2.9684    0.0000 C   0  0  0  0  0  0  0  0  0  0  0  0
   -2.9171   -2.2539    0.0000 C   0  0  0  0  0  0  0  0  0  0  0  0
   -2.5046   -1.5395    0.0000 C   0  0  0  0  0  0  0  0  0  0  0  0
   -2.9171   -0.8250    0.0000 Cl  0  0  0  0  0  0  0  0  0  0  0  0
   -1.6796   -1.5395    0.0000 C   0  0  0  0  0  0  0  0  0  0  0  0
   -1.2671   -0.8250    0.0000 F   0  0  0  0  0  0  0  0  0  0  0  0
   -0.0296   -1.5395    0.0000 C   0  0  0  0  0  0  0  0  0  0  0  0
    0.7954   -1.5395    0.0000 C   0  0  0  0  0  0  0  0  0  0  0  0
    1.2079   -0.8250    0.0000 O   0  0  0  0  0  0  0  0  0  0  0  0
    2.4454   -1.5395    0.0000 C   0  0  0  0  0  0  0  0  0  0  0  0
    3.2704   -1.5395    0.0000 C   0  0  0  0  0  0  0  0  0  0  0  0
    3.6829   -0.8250    0.0000 C   0  0  0  0  0  0  0  0  0  0  0  0
    3.2704   -0.1105    0.0000 C   0  0  0  0  0  0  0  0  0  0  0  0
    2.4454   -0.1105    0.0000 C   0  0  0  0  0  0  0  0  0  0  0  0
    2.0329   -0.8250    0.0000 N   0  0  0  0  0  0  0  0  0  0  0  0
  1  2  1  0  0  0  0
  2  3  1  0  0  0  0
  3  4  2  0  0  0  0
  3  5  1  0  0  0  0
  5  6  1  0  0  0  0
  6  7  4  0  0  0  0
  7  8  4  0  0  0  0
  8  9  4  0  0  0  0
  9 10  4  0  0  0  0
 10 11  4  0  0  0  0
  6 11  4  0  0  0  0
 10 12  1  0  0  0  0
 12 13  2  0  0  0  0
 12 14  1  0  0  0  0
 14 15  1  0  0  0  0
 15 16  1  0  0  0  0
 16 17  1  0  0  0  0
 17 18  1  0  0  0  0
 18 19  1  0  0  0  0
 19 20  1  6  0  0  0
 20 21  1  0  0  0  0
 21 22  1  0  0  0  0
 22 23  1  0  0  0  0
 23 24  1  0  0  0  0
 24 25  4  0  0  0  0
 25 26  1  0  0  0  0
 25 27  4  0  0  0  0
 27 28  4  0  0  0  0
 28 29  4  0  0  0  0
 29 30  1  0  0  0  0
 29 31  4  0  0  0  0
 24 31  4  0  0  0  0
 31 32  1  0  0  0  0
 23 33  2  0  0  0  0
 33 34  1  0  0  0  0
 20 34  1  0  0  0  0
 34 35  2  0  0  0  0
 19 36  1  0  0  0  0
 36 37  4  0  0  0  0
 37 38  4  0  0  0  0
  9 38  1  0  0  0  0
 38 39  4  0  0  0  0
 39 40  4  0  0  0  0
 40 41  4  0  0  0  0
 36 41  4  0  0  0  0
M  END
>  <CdId>
358819

>  <Mol Weight>
581.01

>  <Formula>
C30H27ClF2N4O4

>  <cmpd_chemblid>
CHEMBL3916100

>  <std_type>
Ki

>  <std_value>
270.5

>  <std_unit>
nM

>  <target_id>
CHEMBL2016

>  <target_name>
Coagulation factor IX

>  <organism>
Homo sapiens

>  <target_type>
SINGLE PROTEIN

$$$$

  Mrv0541 08052111042D          

 32 35  0  0  0  0            999 V2000
    0.4944    7.7104    0.0000 C   0  0  0  0  0  0  0  0  0  0  0  0
    1.2089    7.2979    0.0000 C   0  0  0  0  0  0  0  0  0  0  0  0
    0.7964    6.5835    0.0000 C   0  0  0  0  0  0  0  0  0  0  0  0
    1.6214    8.0124    0.0000 C   0  0  0  0  0  0  0  0  0  0  0  0
    1.9233    6.8854    0.0000 C   0  0  0  0  0  0  0  0  0  0  0  0
    2.6378    7.2979    0.0000 C   0  0  0  0  0  0  0  0  0  0  0  0
    3.3523    6.8854    0.0000 C   0  0  0  0  0  0  0  0  0  0  0  0
    3.3523    6.0604    0.0000 C   0  0  0  0  0  0  0  0  0  0  0  0
    4.0668    5.6479    0.0000 N   0  0  0  0  0  0  0  0  0  0  0  0
    4.7812    6.0604    0.0000 C   0  0  0  0  0  0  0  0  0  0  0  0
    5.4957    5.6479    0.0000 C   0  0  0  0  0  0  0  0  0  0  0  0
    5.4957    4.8229    0.0000 C   0  0  0  0  0  0  0  0  0  0  0  0
    4.7812    4.4104    0.0000 C   0  0  0  0  0  0  0  0  0  0  0  0
    4.7812    3.5854    0.0000 C   0  0  0  0  0  0  0  0  0  0  0  0
    5.4957    3.1729    0.0000 O   0  0  0  0  0  0  0  0  0  0  0  0
    4.0668    3.1729    0.0000 C   0  0  0  0  0  0  0  0  0  0  0  0
    3.3523    3.5854    0.0000 O   0  0  0  0  0  0  0  0  0  0  0  0
    4.0668    2.3479    0.0000 N   0  0  0  0  0  0  0  0  0  0  0  0
    3.3523    1.9354    0.0000 C   0  0  0  0  0  0  0  0  0  0  0  0
    3.3523    1.1104    0.0000 C   0  0  0  0  0  0  0  0  0  0  0  0
    2.6378    0.6979    0.0000 C   0  0  0  0  0  0  0  0  0  0  0  0
    1.9233    1.1104    0.0000 C   0  0  0  0  0  0  0  0  0  0  0  0
    1.1387    0.8555    0.0000 C   0  0  0  0  0  0  0  0  0  0  0  0
    0.8838    0.0709    0.0000 N   0  0  0  0  0  0  0  0  0  0  0  0
    0.6538    1.5229    0.0000 N   0  0  0  0  0  0  0  0  0  0  0  0
    1.1387    2.1904    0.0000 O   0  0  0  0  0  0  0  0  0  0  0  0
    1.9233    1.9354    0.0000 C   0  0  0  0  0  0  0  0  0  0  0  0
    2.6378    2.3479    0.0000 C   0  0  0  0  0  0  0  0  0  0  0  0
    4.0668    4.8229    0.0000 C   0  0  0  0  0  0  0  0  0  0  0  0
    3.3523    4.4104    0.0000 O   0  0  0  0  0  0  0  0  0  0  0  0
    2.6378    5.6479    0.0000 C   0  0  0  0  0  0  0  0  0  0  0  0
    1.9233    6.0604    0.0000 C   0  0  0  0  0  0  0  0  0  0  0  0
  1  2  1  0  0  0  0
  2  3  1  0  0  0  0
  2  4  1  0  0  0  0
  2  5  1  0  0  0  0
  5  6  4  0  0  0  0
  6  7  4  0  0  0  0
  7  8  4  0  0  0  0
  8  9  1  0  0  0  0
  9 10  4  0  0  0  0
 10 11  4  0  0  0  0
 11 12  4  0  0  0  0
 12 13  4  0  0  0  0
 13 14  1  0  0  0  0
 14 15  1  0  0  0  0
 14 16  1  0  0  0  0
 16 17  2  0  0  0  0
 16 18  1  0  0  0  0
 18 19  1  0  0  0  0
 19 20  4  0  0  0  0
 20 21  4  0  0  0  0
 21 22  4  0  0  0  0
 22 23  4  0  0  0  0
 23 24  1  0  0  0  0
 23 25  4  0  0  0  0
 25 26  4  0  0  0  0
 26 27  4  0  0  0  0
 22 27  4  0  0  0  0
 27 28  4  0  0  0  0
 19 28  4  0  0  0  0
 13 29  4  0  0  0  0
  9 29  4  0  0  0  0
 29 30  2  0  0  0  0
  8 31  4  0  0  0  0
 31 32  4  0  0  0  0
  5 32  4  0  0  0  0
M  END
>  <CdId>
358820

>  <Mol Weight>
432.4718

>  <Formula>
C24H24N4O4

>  <cmpd_chemblid>
CHEMBL3654417

>  <std_type>
Ki

>  <std_value>
500.0

>  <std_unit>
nM

>  <target_id>
CHEMBL2016

>  <target_name>
Coagulation factor IX

>  <organism>
Homo sapiens

>  <target_type>
SINGLE PROTEIN

$$$$

  Mrv0541 08052111042D          

 46 51  0  0  1  0            999 V2000
    8.6329   -2.2539    0.0000 C   0  0  0  0  0  0  0  0  0  0  0  0
    8.2204   -1.5395    0.0000 O   0  0  0  0  0  0  0  0  0  0  0  0
    7.3954   -1.5395    0.0000 C   0  0  0  0  0  0  0  0  0  0  0  0
    6.9829   -2.2539    0.0000 O   0  0  0  0  0  0  0  0  0  0  0  0
    6.9829   -0.8250    0.0000 N   0  0  0  0  0  0  0  0  0  0  0  0
    6.1579   -0.8250    0.0000 C   0  0  0  0  0  0  0  0  0  0  0  0
    5.7454   -0.1105    0.0000 C   0  0  0  0  0  0  0  0  0  0  0  0
    4.9204   -0.1105    0.0000 C   0  0  0  0  0  0  0  0  0  0  0  0
    4.5079   -0.8250    0.0000 C   0  0  0  0  0  0  0  0  0  0  0  0
    4.9204   -1.5395    0.0000 C   0  0  0  0  0  0  0  0  0  0  0  0
    5.7454   -1.5395    0.0000 C   0  0  0  0  0  0  0  0  0  0  0  0
    4.5079   -2.2539    0.0000 N   0  0  0  0  0  0  0  0  0  0  0  0
    4.9204   -2.9684    0.0000 C   0  0  0  0  0  0  0  0  0  0  0  0
    5.7454   -2.9684    0.0000 O   0  0  0  0  0  0  0  0  0  0  0  0
    4.5079   -3.6829    0.0000 C   0  0  2  0  0  0  0  0  0  0  0  0
    4.9204   -4.3974    0.0000 C   0  0  0  0  0  0  0  0  0  0  0  0
    3.6829   -3.6829    0.0000 C   0  0  0  0  0  0  0  0  0  0  0  0
    3.2704   -2.9684    0.0000 C   0  0  0  0  0  0  0  0  0  0  0  0
    2.4454   -2.9684    0.0000 C   0  0  0  0  0  0  0  0  0  0  0  0
    2.0329   -2.2539    0.0000 C   0  0  2  0  0  0  0  0  0  0  0  0
    1.2079   -2.2539    0.0000 N   0  0  0  0  0  0  0  0  0  0  0  0
    0.7954   -2.9684    0.0000 C   0  0  0  0  0  0  0  0  0  0  0  0
   -0.0296   -2.9684    0.0000 C   0  0  0  0  0  0  0  0  0  0  0  0
   -0.4421   -2.2539    0.0000 C   0  0  0  0  0  0  0  0  0  0  0  0
   -1.2671   -2.2539    0.0000 C   0  0  0  0  0  0  0  0  0  0  0  0
   -1.6796   -2.9684    0.0000 C   0  0  0  0  0  0  0  0  0  0  0  0
   -1.2671   -3.6829    0.0000 C   0  0  0  0  0  0  0  0  0  0  0  0
   -0.4466   -3.7691    0.0000 C   0  0  0  0  0  0  0  0  0  0  0  0
   -0.2751   -4.5761    0.0000 N   0  0  0  0  0  0  0  0  0  0  0  0
   -0.9896   -4.9886    0.0000 N   0  0  0  0  0  0  0  0  0  0  0  0
   -1.6027   -4.4366    0.0000 N   0  0  0  0  0  0  0  0  0  0  0  0
   -2.5046   -2.9684    0.0000 C   0  0  0  0  0  0  0  0  0  0  0  0
   -2.9171   -2.2539    0.0000 C   0  0  0  0  0  0  0  0  0  0  0  0
   -2.5046   -1.5395    0.0000 C   0  0  0  0  0  0  0  0  0  0  0  0
   -2.9171   -0.8250    0.0000 Cl  0  0  0  0  0  0  0  0  0  0  0  0
   -1.6796   -1.5395    0.0000 C   0  0  0  0  0  0  0  0  0  0  0  0
   -1.2671   -0.8250    0.0000 F   0  0  0  0  0  0  0  0  0  0  0  0
   -0.0296   -1.5395    0.0000 C   0  0  0  0  0  0  0  0  0  0  0  0
    0.7954   -1.5395    0.0000 C   0  0  0  0  0  0  0  0  0  0  0  0
    1.2079   -0.8250    0.0000 O   0  0  0  0  0  0  0  0  0  0  0  0
    2.4454   -1.5395    0.0000 C   0  0  0  0  0  0  0  0  0  0  0  0
    3.2704   -1.5395    0.0000 C   0  0  0  0  0  0  0  0  0  0  0  0
    3.6829   -0.8250    0.0000 C   0  0  0  0  0  0  0  0  0  0  0  0
    3.2704   -0.1105    0.0000 C   0  0  0  0  0  0  0  0  0  0  0  0
    2.4454   -0.1105    0.0000 C   0  0  0  0  0  0  0  0  0  0  0  0
    2.0329   -0.8250    0.0000 N   0  0  0  0  0  0  0  0  0  0  0  0
  1  2  1  0  0  0  0
  2  3  1  0  0  0  0
  3  4  2  0  0  0  0
  3  5  1  0  0  0  0
  5  6  1  0  0  0  0
  6  7  4  0  0  0  0
  7  8  4  0  0  0  0
  8  9  4  0  0  0  0
  9 10  4  0  0  0  0
 10 11  4  0  0  0  0
  6 11  4  0  0  0  0
 10 12  1  0  0  0  0
 12 13  1  0  0  0  0
 13 14  2  0  0  0  0
 13 15  1  0  0  0  0
 15 16  1  6  0  0  0
 15 17  1  0  0  0  0
 17 18  1  0  0  0  0
 18 19  1  0  0  0  0
 19 20  1  0  0  0  0
 20 21  1  6  0  0  0
 21 22  1  0  0  0  0
 22 23  1  0  0  0  0
 23 24  1  0  0  0  0
 24 25  1  0  0  0  0
 25 26  4  0  0  0  0
 26 27  1  0  0  0  0
 27 28  4  0  0  0  0
 28 29  4  0  0  0  0
 29 30  4  0  0  0  0
 30 31  4  0  0  0  0
 27 31  4  0  0  0  0
 26 32  4  0  0  0  0
 32 33  4  0  0  0  0
 33 34  4  0  0  0  0
 34 35  1  0  0  0  0
 34 36  4  0  0  0  0
 25 36  4  0  0  0  0
 36 37  1  0  0  0  0
 24 38  2  0  0  0  0
 38 39  1  0  0  0  0
 21 39  1  0  0  0  0
 39 40  2  0  0  0  0
 20 41  1  0  0  0  0
 41 42  4  0  0  0  0
 42 43  4  0  0  0  0
  9 43  1  0  0  0  0
 43 44  4  0  0  0  0
 44 45  4  0  0  0  0
 45 46  4  0  0  0  0
 41 46  4  0  0  0  0
M  STY  1   1 DAT
M  SAL   1  1  29
M  SDT   1 MRV_IMPLICIT_H                                        
M  SDD   1     0.0000    0.0000    DR    ALL  0       0  
M  SED   1 IMPL_H1
M  END
>  <CdId>
358821

>  <Mol Weight>
644.095

>  <Formula>
C33H31ClFN7O4

>  <cmpd_chemblid>
CHEMBL4115423

>  <std_type>
Ki

>  <std_value>
0.11

>  <std_unit>
nM

>  <target_id>
CHEMBL2016

>  <target_name>
Coagulation factor IX

>  <organism>
Homo sapiens

>  <target_type>
SINGLE PROTEIN

$$$$

  Mrv0541 08052111042D          

 49 54  0  0  1  0            999 V2000
    3.9849    3.9849    0.0000 C   0  0  0  0  0  0  0  0  0  0  0  0
    4.3974    3.2704    0.0000 C   0  0  2  0  0  0  0  0  0  0  0  0
    5.2224    3.2704    0.0000 C   0  0  0  0  0  0  0  0  0  0  0  0
    5.6349    2.5559    0.0000 C   0  0  0  0  0  0  0  0  0  0  0  0
    6.4599    2.5559    0.0000 C   0  0  0  0  0  0  0  0  0  0  0  0
    6.8724    1.8414    0.0000 C   0  0  2  0  0  0  0  0  0  0  0  0
    7.6974    1.8414    0.0000 N   0  0  0  0  0  0  0  0  0  0  0  0
    8.1099    2.5559    0.0000 C   0  0  0  0  0  0  0  0  0  0  0  0
    8.9349    2.5559    0.0000 C   0  0  0  0  0  0  0  0  0  0  0  0
    9.3474    1.8414    0.0000 C   0  0  0  0  0  0  0  0  0  0  0  0
   10.1724    1.8414    0.0000 C   0  0  0  0  0  0  0  0  0  0  0  0
   10.5849    2.5559    0.0000 C   0  0  0  0  0  0  0  0  0  0  0  0
   10.1724    3.2704    0.0000 F   0  0  0  0  0  0  0  0  0  0  0  0
   11.4099    2.5559    0.0000 C   0  0  0  0  0  0  0  0  0  0  0  0
   11.8224    1.8414    0.0000 C   0  0  0  0  0  0  0  0  0  0  0  0
   11.4099    1.1270    0.0000 C   0  0  0  0  0  0  0  0  0  0  0  0
   11.8224    0.4125    0.0000 Cl  0  0  0  0  0  0  0  0  0  0  0  0
   10.5849    1.1270    0.0000 C   0  0  0  0  0  0  0  0  0  0  0  0
   10.1724    0.4125    0.0000 F   0  0  0  0  0  0  0  0  0  0  0  0
    8.9349    1.1270    0.0000 C   0  0  0  0  0  0  0  0  0  0  0  0
    8.1099    1.1270    0.0000 C   0  0  0  0  0  0  0  0  0  0  0  0
    7.6974    0.4125    0.0000 O   0  0  0  0  0  0  0  0  0  0  0  0
    6.4599    1.1270    0.0000 C   0  0  0  0  0  0  0  0  0  0  0  0
    5.6349    1.1270    0.0000 C   0  0  0  0  0  0  0  0  0  0  0  0
    5.2224    0.4125    0.0000 C   0  0  0  0  0  0  0  0  0  0  0  0
    5.6349   -0.3020    0.0000 C   0  0  0  0  0  0  0  0  0  0  0  0
    6.4599   -0.3020    0.0000 C   0  0  0  0  0  0  0  0  0  0  0  0
    6.8724    0.4125    0.0000 N   0  0  0  0  0  0  0  0  0  0  0  0
    4.3974    0.4125    0.0000 C   0  0  0  0  0  0  0  0  0  0  0  0
    3.9849   -0.3020    0.0000 C   0  0  0  0  0  0  0  0  0  0  0  0
    3.1599   -0.3020    0.0000 C   0  0  0  0  0  0  0  0  0  0  0  0
    2.7474    0.4125    0.0000 C   0  0  0  0  0  0  0  0  0  0  0  0
    1.9224    0.4125    0.0000 N   0  0  0  0  0  0  0  0  0  0  0  0
    1.5099    1.1270    0.0000 C   0  0  0  0  0  0  0  0  0  0  0  0
    0.6849    1.1270    0.0000 O   0  0  0  0  0  0  0  0  0  0  0  0
    0.2724    1.8414    0.0000 C   0  0  2  0  0  0  0  0  0  0  0  0
   -0.5526    1.8414    0.0000 C   0  0  0  0  0  0  0  0  0  0  0  0
   -0.9651    1.1270    0.0000 O   0  0  0  0  0  0  0  0  0  0  0  0
    0.6849    2.5559    0.0000 C   0  0  1  0  0  0  0  0  0  0  0  0
    0.2724    3.2704    0.0000 O   0  0  0  0  0  0  0  0  0  0  0  0
    1.5099    2.5559    0.0000 C   0  0  2  0  0  0  0  0  0  0  0  0
    1.9224    3.2704    0.0000 O   0  0  0  0  0  0  0  0  0  0  0  0
    1.9224    1.8414    0.0000 C   0  0  2  0  0  0  0  0  0  0  0  0
    2.7474    1.8414    0.0000 O   0  0  0  0  0  0  0  0  0  0  0  0
    3.1599    1.1270    0.0000 C   0  0  0  0  0  0  0  0  0  0  0  0
    3.9849    1.1270    0.0000 C   0  0  0  0  0  0  0  0  0  0  0  0
    4.3974    1.8414    0.0000 N   0  0  0  0  0  0  0  0  0  0  0  0
    3.9849    2.5559    0.0000 C   0  0  0  0  0  0  0  0  0  0  0  0
    3.1599    2.5559    0.0000 O   0  0  0  0  0  0  0  0  0  0  0  0
  2  1  1  6  0  0  0
  2  3  1  0  0  0  0
  3  4  1  0  0  0  0
  4  5  1  0  0  0  0
  5  6  1  0  0  0  0
  6  7  1  6  0  0  0
  7  8  1  0  0  0  0
  8  9  1  0  0  0  0
  9 10  1  0  0  0  0
 10 11  1  0  0  0  0
 11 12  4  0  0  0  0
 12 13  1  0  0  0  0
 12 14  4  0  0  0  0
 14 15  4  0  0  0  0
 15 16  4  0  0  0  0
 16 17  1  0  0  0  0
 16 18  4  0  0  0  0
 11 18  4  0  0  0  0
 18 19  1  0  0  0  0
 10 20  2  0  0  0  0
 20 21  1  0  0  0  0
  7 21  1  0  0  0  0
 21 22  2  0  0  0  0
  6 23  1  0  0  0  0
 23 24  4  0  0  0  0
 24 25  4  0  0  0  0
 25 26  4  0  0  0  0
 26 27  4  0  0  0  0
 27 28  4  0  0  0  0
 23 28  4  0  0  0  0
 25 29  1  0  0  0  0
 29 30  4  0  0  0  0
 30 31  4  0  0  0  0
 31 32  4  0  0  0  0
 32 33  1  0  0  0  0
 33 34  1  0  0  0  0
 34 35  1  0  0  0  0
 35 36  1  0  0  0  0
 36 37  1  6  0  0  0
 37 38  1  0  0  0  0
 36 39  1  0  0  0  0
 39 40  1  1  0  0  0
 39 41  1  0  0  0  0
 41 42  1  6  0  0  0
 41 43  1  0  0  0  0
 34 43  1  0  0  0  0
 43 44  1  6  0  0  0
 32 45  4  0  0  0  0
 45 46  4  0  0  0  0
 29 46  4  0  0  0  0
 46 47  1  0  0  0  0
 47 48  1  0  0  0  0
  2 48  1  0  0  0  0
 48 49  2  0  0  0  0
M  END
>  <CdId>
358822

>  <Mol Weight>
699.141

>  <Formula>
C35H37ClF2N4O7

>  <cmpd_chemblid>
CHEMBL4114062

>  <std_type>
Ki

>  <std_value>
15.17

>  <std_unit>
nM

>  <target_id>
CHEMBL2016

>  <target_name>
Coagulation factor IX

>  <organism>
Homo sapiens

>  <target_type>
SINGLE PROTEIN

$$$$

  Mrv0541 08052111042D          

 40 44  0  0  1  0            999 V2000
    8.6329   -2.2539    0.0000 C   0  0  0  0  0  0  0  0  0  0  0  0
    8.2204   -1.5395    0.0000 O   0  0  0  0  0  0  0  0  0  0  0  0
    7.3954   -1.5395    0.0000 C   0  0  0  0  0  0  0  0  0  0  0  0
    6.9829   -2.2539    0.0000 O   0  0  0  0  0  0  0  0  0  0  0  0
    6.9829   -0.8250    0.0000 N   0  0  0  0  0  0  0  0  0  0  0  0
    6.1579   -0.8250    0.0000 C   0  0  0  0  0  0  0  0  0  0  0  0
    5.7454   -0.1105    0.0000 C   0  0  0  0  0  0  0  0  0  0  0  0
    4.9204   -0.1105    0.0000 C   0  0  0  0  0  0  0  0  0  0  0  0
    4.5079   -0.8250    0.0000 C   0  0  0  0  0  0  0  0  0  0  0  0
    4.9204   -1.5395    0.0000 C   0  0  0  0  0  0  0  0  0  0  0  0
    5.7454   -1.5395    0.0000 C   0  0  0  0  0  0  0  0  0  0  0  0
    4.5079   -2.2539    0.0000 N   0  0  0  0  0  0  0  0  0  0  0  0
    4.9204   -2.9684    0.0000 C   0  0  0  0  0  0  0  0  0  0  0  0
    5.7454   -2.9684    0.0000 O   0  0  0  0  0  0  0  0  0  0  0  0
    4.5079   -3.6829    0.0000 C   0  0  2  0  0  0  0  0  0  0  0  0
    4.9204   -4.3974    0.0000 C   0  0  0  0  0  0  0  0  0  0  0  0
    3.6829   -3.6829    0.0000 C   0  0  0  0  0  0  0  0  0  0  0  0
    3.2704   -2.9684    0.0000 C   0  0  0  0  0  0  0  0  0  0  0  0
    2.4454   -2.9684    0.0000 C   0  0  0  0  0  0  0  0  0  0  0  0
    2.0329   -2.2539    0.0000 C   0  0  2  0  0  0  0  0  0  0  0  0
    1.2079   -2.2539    0.0000 N   0  0  0  0  0  0  0  0  0  0  0  0
    0.7954   -2.9684    0.0000 C   0  0  0  0  0  0  0  0  0  0  0  0
   -0.0296   -2.9684    0.0000 C   0  0  0  0  0  0  0  0  0  0  0  0
   -0.4421   -2.2539    0.0000 C   0  0  0  0  0  0  0  0  0  0  0  0
   -1.2671   -2.2539    0.0000 C   0  0  0  0  0  0  0  0  0  0  0  0
   -1.6796   -2.9684    0.0000 C   0  0  0  0  0  0  0  0  0  0  0  0
   -2.5046   -2.9684    0.0000 C   0  0  0  0  0  0  0  0  0  0  0  0
   -2.9171   -2.2539    0.0000 C   0  0  0  0  0  0  0  0  0  0  0  0
   -2.5046   -1.5395    0.0000 C   0  0  0  0  0  0  0  0  0  0  0  0
   -2.9171   -0.8250    0.0000 C   0  0  0  0  0  0  0  0  0  0  0  0
   -1.6796   -1.5395    0.0000 C   0  0  0  0  0  0  0  0  0  0  0  0
   -0.0296   -1.5395    0.0000 C   0  0  0  0  0  0  0  0  0  0  0  0
    0.7954   -1.5395    0.0000 C   0  0  0  0  0  0  0  0  0  0  0  0
    1.2079   -0.8250    0.0000 O   0  0  0  0  0  0  0  0  0  0  0  0
    2.4454   -1.5395    0.0000 C   0  0  0  0  0  0  0  0  0  0  0  0
    3.2704   -1.5395    0.0000 C   0  0  0  0  0  0  0  0  0  0  0  0
    3.6829   -0.8250    0.0000 C   0  0  0  0  0  0  0  0  0  0  0  0
    3.2704   -0.1105    0.0000 C   0  0  0  0  0  0  0  0  0  0  0  0
    2.4454   -0.1105    0.0000 C   0  0  0  0  0  0  0  0  0  0  0  0
    2.0329   -0.8250    0.0000 N   0  0  0  0  0  0  0  0  0  0  0  0
  1  2  1  0  0  0  0
  2  3  1  0  0  0  0
  3  4  2  0  0  0  0
  3  5  1  0  0  0  0
  5  6  1  0  0  0  0
  6  7  4  0  0  0  0
  7  8  4  0  0  0  0
  8  9  4  0  0  0  0
  9 10  4  0  0  0  0
 10 11  4  0  0  0  0
  6 11  4  0  0  0  0
 10 12  1  0  0  0  0
 12 13  1  0  0  0  0
 13 14  2  0  0  0  0
 13 15  1  0  0  0  0
 15 16  1  6  0  0  0
 15 17  1  0  0  0  0
 17 18  1  0  0  0  0
 18 19  1  0  0  0  0
 19 20  1  0  0  0  0
 20 21  1  6  0  0  0
 21 22  1  0  0  0  0
 22 23  1  0  0  0  0
 23 24  1  0  0  0  0
 24 25  1  0  0  0  0
 25 26  1  0  0  0  0
 26 27  1  0  0  0  0
 27 28  1  0  0  0  0
 28 29  1  0  0  0  0
 29 30  1  0  0  0  0
 29 31  1  0  0  0  0
 25 31  1  0  0  0  0
 24 32  2  0  0  0  0
 32 33  1  0  0  0  0
 21 33  1  0  0  0  0
 33 34  2  0  0  0  0
 20 35  1  0  0  0  0
 35 36  4  0  0  0  0
 36 37  4  0  0  0  0
  9 37  1  0  0  0  0
 37 38  4  0  0  0  0
 38 39  4  0  0  0  0
 39 40  4  0  0  0  0
 35 40  4  0  0  0  0
M  END
>  <CdId>
358823

>  <Mol Weight>
544.6844

>  <Formula>
C32H40N4O4

>  <cmpd_chemblid>
CHEMBL4108931

>  <std_type>
Ki

>  <std_value>
26.11

>  <std_unit>
nM

>  <target_id>
CHEMBL2016

>  <target_name>
Coagulation factor IX

>  <organism>
Homo sapiens

>  <target_type>
SINGLE PROTEIN

$$$$

  Mrv0541 08052111042D          

 28 31  0  0  0  0            999 V2000
    4.0668    8.1229    0.0000 C   0  0  0  0  0  0  0  0  0  0  0  0
    4.0668    7.2979    0.0000 O   0  0  0  0  0  0  0  0  0  0  0  0
    4.7812    6.8854    0.0000 C   0  0  0  0  0  0  0  0  0  0  0  0
    5.4957    7.2979    0.0000 C   0  0  0  0  0  0  0  0  0  0  0  0
    6.2102    6.8854    0.0000 C   0  0  0  0  0  0  0  0  0  0  0  0
    6.2102    6.0604    0.0000 C   0  0  0  0  0  0  0  0  0  0  0  0
    5.4957    5.6479    0.0000 C   0  0  0  0  0  0  0  0  0  0  0  0
    5.4957    4.8229    0.0000 C   0  0  0  0  0  0  0  0  0  0  0  0
    4.7812    4.4104    0.0000 O   0  0  0  0  0  0  0  0  0  0  0  0
    4.7812    3.5854    0.0000 C   0  0  0  0  0  0  0  0  0  0  0  0
    5.4957    3.1729    0.0000 C   0  0  0  0  0  0  0  0  0  0  0  0
    5.4957    2.3479    0.0000 C   0  0  0  0  0  0  0  0  0  0  0  0
    4.7812    1.9354    0.0000 C   0  0  0  0  0  0  0  0  0  0  0  0
    4.0668    2.3479    0.0000 C   0  0  0  0  0  0  0  0  0  0  0  0
    3.3523    1.9354    0.0000 C   0  0  0  0  0  0  0  0  0  0  0  0
    3.3523    1.1104    0.0000 C   0  0  0  0  0  0  0  0  0  0  0  0
    2.6378    0.6979    0.0000 C   0  0  0  0  0  0  0  0  0  0  0  0
    1.9233    1.1104    0.0000 C   0  0  0  0  0  0  0  0  0  0  0  0
    1.1387    0.8555    0.0000 S   0  0  0  0  0  0  0  0  0  0  0  0
    0.6538    1.5229    0.0000 C   0  0  0  0  0  0  0  0  0  0  0  0
   -0.1712    1.5229    0.0000 C   0  0  0  0  0  0  0  0  0  0  0  0
   -0.5837    0.8085    0.0000 N   0  0  0  0  0  0  0  0  0  0  0  0
   -0.5837    2.2374    0.0000 N   0  0  0  0  0  0  0  0  0  0  0  0
    1.1387    2.1904    0.0000 C   0  0  0  0  0  0  0  0  0  0  0  0
    1.9233    1.9354    0.0000 C   0  0  0  0  0  0  0  0  0  0  0  0
    2.6378    2.3479    0.0000 C   0  0  0  0  0  0  0  0  0  0  0  0
    4.0668    3.1729    0.0000 C   0  0  0  0  0  0  0  0  0  0  0  0
    4.7812    6.0604    0.0000 C   0  0  0  0  0  0  0  0  0  0  0  0
  1  2  1  0  0  0  0
  2  3  1  0  0  0  0
  3  4  4  0  0  0  0
  4  5  4  0  0  0  0
  5  6  4  0  0  0  0
  6  7  4  0  0  0  0
  7  8  1  0  0  0  0
  8  9  1  0  0  0  0
  9 10  1  0  0  0  0
 10 11  4  0  0  0  0
 11 12  4  0  0  0  0
 12 13  4  0  0  0  0
 13 14  4  0  0  0  0
 14 15  1  0  0  0  0
 15 16  4  0  0  0  0
 16 17  4  0  0  0  0
 17 18  4  0  0  0  0
 18 19  4  0  0  0  0
 19 20  4  0  0  0  0
 20 21  1  0  0  0  0
 21 22  2  0  0  0  0
 21 23  1  0  0  0  0
 20 24  4  0  0  0  0
 24 25  4  0  0  0  0
 18 25  4  0  0  0  0
 25 26  4  0  0  0  0
 15 26  4  0  0  0  0
 14 27  4  0  0  0  0
 10 27  4  0  0  0  0
  7 28  4  0  0  0  0
  3 28  4  0  0  0  0
M  END
>  <CdId>
358824

>  <Mol Weight>
388.482

>  <Formula>
C23H20N2O2S

>  <cmpd_chemblid>
CHEMBL599627

>  <std_type>
Ki

>  <std_value>
450.0

>  <std_unit>
nM

>  <target_id>
CHEMBL2016

>  <target_name>
Coagulation factor IX

>  <organism>
Homo sapiens

>  <target_type>
SINGLE PROTEIN

$$$$

  Mrv0541 08052111042D          

 38 42  0  0  1  0            999 V2000
    0.0000    0.8250    0.0000 C   0  0  0  0  0  0  0  0  0  0  0  0
    0.0000    0.0000    0.0000 O   0  0  0  0  0  0  0  0  0  0  0  0
    0.7145   -0.4125    0.0000 C   0  0  0  0  0  0  0  0  0  0  0  0
    1.4289    0.0000    0.0000 C   0  0  0  0  0  0  0  0  0  0  0  0
    2.1434   -0.4125    0.0000 C   0  0  0  0  0  0  0  0  0  0  0  0
    2.8579    0.0000    0.0000 C   0  0  0  0  0  0  0  0  0  0  0  0
    2.8579    0.8250    0.0000 N   0  0  0  0  0  0  0  0  0  0  0  0
    3.5724   -0.4125    0.0000 N   0  0  0  0  0  0  0  0  0  0  0  0
    3.5724   -1.2375    0.0000 C   0  0  0  0  0  0  0  0  0  0  0  0
    2.8579   -1.6500    0.0000 C   0  0  0  0  0  0  0  0  0  0  0  0
    2.1434   -1.2375    0.0000 C   0  0  0  0  0  0  0  0  0  0  0  0
    1.4289   -1.6500    0.0000 C   0  0  0  0  0  0  0  0  0  0  0  0
    0.7145   -1.2375    0.0000 C   0  0  0  0  0  0  0  0  0  0  0  0
    0.0000   -1.6500    0.0000 C   0  0  0  0  0  0  0  0  0  0  0  0
    0.0000   -2.4750    0.0000 C   0  0  2  0  0  0  0  0  0  0  0  0
   -0.7145   -2.8875    0.0000 C   0  0  0  0  0  0  0  0  0  0  0  0
   -0.7145   -3.7125    0.0000 O   0  0  0  0  0  0  0  0  0  0  0  0
   -1.4289   -2.4750    0.0000 O   0  0  0  0  0  0  0  0  0  0  0  0
    0.7145   -2.8875    0.0000 N   0  0  0  0  0  0  0  0  0  0  0  0
    1.4681   -2.5519    0.0000 C   0  0  0  0  0  0  0  0  0  0  0  0
    2.0202   -3.1650    0.0000 C   0  0  0  0  0  0  0  0  0  0  0  0
    1.6077   -3.8795    0.0000 C   0  0  2  0  0  0  0  0  0  0  0  0
    1.9432   -4.6332    0.0000 N   0  0  0  0  0  0  0  0  0  0  0  0
    2.7637   -4.7194    0.0000 S   0  0  0  0  0  0  0  0  0  0  0  0
    2.6775   -5.5399    0.0000 O   0  0  0  0  0  0  0  0  0  0  0  0
    2.8500   -3.8989    0.0000 O   0  0  0  0  0  0  0  0  0  0  0  0
    3.5842   -4.8057    0.0000 C   0  0  0  0  0  0  0  0  0  0  0  0
    4.1362   -4.1926    0.0000 C   0  0  0  0  0  0  0  0  0  0  0  0
    4.8899   -4.5281    0.0000 N   0  0  0  0  0  0  0  0  0  0  0  0
    4.8037   -5.3486    0.0000 C   0  0  0  0  0  0  0  0  0  0  0  0
    5.4168   -5.9006    0.0000 N   0  0  0  0  0  0  0  0  0  0  0  0
    6.2237   -5.7291    0.0000 C   0  0  0  0  0  0  0  0  0  0  0  0
    6.6362   -6.4436    0.0000 C   0  0  0  0  0  0  0  0  0  0  0  0
    6.0842   -7.0567    0.0000 C   0  0  0  0  0  0  0  0  0  0  0  0
    5.3305   -6.7211    0.0000 C   0  0  0  0  0  0  0  0  0  0  0  0
    3.9967   -5.5201    0.0000 S   0  0  0  0  0  0  0  0  0  0  0  0
    0.8007   -3.7080    0.0000 C   0  0  0  0  0  0  0  0  0  0  0  0
    0.1876   -4.2600    0.0000 O   0  0  0  0  0  0  0  0  0  0  0  0
  1  2  1  0  0  0  0
  2  3  1  0  0  0  0
  3  4  4  0  0  0  0
  4  5  4  0  0  0  0
  5  6  4  0  0  0  0
  6  7  1  0  0  0  0
  6  8  4  0  0  0  0
  8  9  4  0  0  0  0
  9 10  4  0  0  0  0
 10 11  4  0  0  0  0
  5 11  4  0  0  0  0
 11 12  4  0  0  0  0
 12 13  4  0  0  0  0
  3 13  4  0  0  0  0
 13 14  1  0  0  0  0
 14 15  1  0  0  0  0
 15 16  1  0  0  0  0
 16 17  2  0  0  0  0
 16 18  1  0  0  0  0
 15 19  1  1  0  0  0
 19 20  1  0  0  0  0
 20 21  1  0  0  0  0
 21 22  1  0  0  0  0
 22 23  1  6  0  0  0
 23 24  1  0  0  0  0
 24 25  2  0  0  0  0
 24 26  2  0  0  0  0
 24 27  1  0  0  0  0
 27 28  4  0  0  0  0
 28 29  4  0  0  0  0
 29 30  4  0  0  0  0
 30 31  1  0  0  0  0
 31 32  1  0  0  0  0
 32 33  1  0  0  0  0
 33 34  1  0  0  0  0
 34 35  1  0  0  0  0
 31 35  1  0  0  0  0
 30 36  4  0  0  0  0
 27 36  4  0  0  0  0
 22 37  1  0  0  0  0
 19 37  1  0  0  0  0
 37 38  2  0  0  0  0
M  END
>  <CdId>
358825

>  <Mol Weight>
560.646

>  <Formula>
C24H28N6O6S2

>  <cmpd_chemblid>
CHEMBL3903289

>  <std_type>
Ki

>  <std_value>
55.0

>  <std_unit>
nM

>  <target_id>
CHEMBL2016

>  <target_name>
Coagulation factor IX

>  <organism>
Homo sapiens

>  <target_type>
SINGLE PROTEIN

$$$$

  Mrv0541 08052111042D          

 41 43  0  0  1  0            999 V2000
   -4.4318    0.5512    0.0000 C   0  0  0  0  0  0  0  0  0  0  0  0
   -4.0193   -0.1633    0.0000 O   0  0  0  0  0  0  0  0  0  0  0  0
   -3.1943   -0.1633    0.0000 C   0  0  0  0  0  0  0  0  0  0  0  0
   -2.7818    0.5512    0.0000 O   0  0  0  0  0  0  0  0  0  0  0  0
   -2.7818   -0.8778    0.0000 C   0  0  1  0  0  0  0  0  0  0  0  0
   -3.1943   -1.5923    0.0000 C   0  0  0  0  0  0  0  0  0  0  0  0
   -2.7818   -2.3067    0.0000 C   0  0  0  0  0  0  0  0  0  0  0  0
   -1.9568   -2.3067    0.0000 C   0  0  0  0  0  0  0  0  0  0  0  0
   -1.5443   -1.5923    0.0000 C   0  0  0  0  0  0  0  0  0  0  0  0
   -1.9568   -0.8778    0.0000 C   0  0  0  0  0  0  0  0  0  0  0  0
   -1.5443   -0.1633    0.0000 N   0  0  0  0  0  0  0  0  0  0  0  0
   -0.7193   -0.1633    0.0000 N   0  0  0  0  0  0  0  0  0  0  0  0
   -0.3068    0.5512    0.0000 C   0  0  0  0  0  0  0  0  0  0  0  0
   -0.7193    1.2656    0.0000 O   0  0  0  0  0  0  0  0  0  0  0  0
    0.5182    0.5512    0.0000 C   0  0  2  0  0  0  0  0  0  0  0  0
    0.9307   -0.1633    0.0000 C   0  0  0  0  0  0  0  0  0  0  0  0
    0.5182   -0.8778    0.0000 C   0  0  0  0  0  0  0  0  0  0  0  0
    0.9307   -1.5923    0.0000 C   0  0  0  0  0  0  0  0  0  0  0  0
    0.5182   -2.3067    0.0000 C   0  0  0  0  0  0  0  0  0  0  0  0
   -0.3068   -2.3067    0.0000 C   0  0  0  0  0  0  0  0  0  0  0  0
   -0.7193   -1.5923    0.0000 C   0  0  0  0  0  0  0  0  0  0  0  0
   -0.3068   -0.8778    0.0000 C   0  0  0  0  0  0  0  0  0  0  0  0
    0.9307    1.2656    0.0000 C   0  0  0  0  0  0  0  0  0  0  0  0
    0.5952    2.0193    0.0000 C   0  0  0  0  0  0  0  0  0  0  0  0
    1.2083    2.5713    0.0000 S   0  0  0  0  0  0  0  0  0  0  0  0
    1.9228    2.1588    0.0000 C   0  0  0  0  0  0  0  0  0  0  0  0
    2.7074    2.4138    0.0000 C   0  0  0  0  0  0  0  0  0  0  0  0
    3.3205    1.8617    0.0000 C   0  0  0  0  0  0  0  0  0  0  0  0
    3.1489    1.0548    0.0000 C   0  0  0  0  0  0  0  0  0  0  0  0
    3.7620    0.5027    0.0000 C   0  0  0  0  0  0  0  0  0  0  0  0
    4.5467    0.7577    0.0000 N   0  0  0  0  0  0  0  0  0  0  0  0
    3.5905   -0.3042    0.0000 N   0  0  0  0  0  0  0  0  0  0  0  0
    2.3643    0.7998    0.0000 C   0  0  0  0  0  0  0  0  0  0  0  0
    1.7512    1.3519    0.0000 C   0  0  0  0  0  0  0  0  0  0  0  0
    6.6608   -0.8839    0.0000 O   0  0  0  0  0  0  0  0  0  0  0  0
    7.3752   -0.4714    0.0000 C   0  0  0  0  0  0  0  0  0  0  0  0
    8.0897   -0.8839    0.0000 O   0  0  0  0  0  0  0  0  0  0  0  0
    7.3752    0.3536    0.0000 C   0  0  0  0  0  0  0  0  0  0  0  0
    7.3752    1.1786    0.0000 F   0  0  0  0  0  0  0  0  0  0  0  0
    8.2002    0.3536    0.0000 F   0  0  0  0  0  0  0  0  0  0  0  0
    6.5502    0.3536    0.0000 F   0  0  0  0  0  0  0  0  0  0  0  0
  1  2  1  0  0  0  0
  2  3  1  0  0  0  0
  3  4  2  0  0  0  0
  5  3  1  6  0  0  0
  5  6  1  0  0  0  0
  6  7  1  0  0  0  0
  7  8  1  0  0  0  0
  8  9  1  0  0  0  0
  9 10  1  0  0  0  0
  5 10  1  0  0  0  0
 10 11  1  0  0  0  0
 11 12  1  0  0  0  0
 12 13  1  0  0  0  0
 13 14  2  0  0  0  0
 13 15  1  0  0  0  0
 15 16  1  0  0  0  0
 16 17  1  0  0  0  0
 17 18  4  0  0  0  0
 18 19  4  0  0  0  0
 19 20  4  0  0  0  0
 20 21  4  0  0  0  0
 21 22  4  0  0  0  0
 17 22  4  0  0  0  0
 15 23  1  1  0  0  0
 23 24  4  0  0  0  0
 24 25  4  0  0  0  0
 25 26  4  0  0  0  0
 26 27  4  0  0  0  0
 27 28  4  0  0  0  0
 28 29  4  0  0  0  0
 29 30  1  0  0  0  0
 30 31  2  0  0  0  0
 30 32  1  0  0  0  0
 29 33  4  0  0  0  0
 33 34  4  0  0  0  0
 23 34  4  0  0  0  0
 26 34  4  0  0  0  0
 35 36  2  0  0  0  0
 36 37  1  0  0  0  0
 36 38  1  0  0  0  0
 38 39  1  0  0  0  0
 38 40  1  0  0  0  0
 38 41  1  0  0  0  0
M  END
>  <CdId>
358827

>  <Mol Weight>
592.63

>  <Formula>
C28H31F3N4O5S

>  <cmpd_chemblid>
CHEMBL361544

>  <std_type>
Ki

>  <std_value>
280.0

>  <std_unit>
nM

>  <target_id>
CHEMBL2016

>  <target_name>
Coagulation factor IX

>  <organism>
Homo sapiens

>  <target_type>
SINGLE PROTEIN

$$$$

  Mrv0541 08052111042D          

 39 43  0  0  1  0            999 V2000
    8.6329   -2.2539    0.0000 C   0  0  0  0  0  0  0  0  0  0  0  0
    8.2204   -1.5395    0.0000 O   0  0  0  0  0  0  0  0  0  0  0  0
    7.3954   -1.5395    0.0000 C   0  0  0  0  0  0  0  0  0  0  0  0
    6.9829   -2.2539    0.0000 O   0  0  0  0  0  0  0  0  0  0  0  0
    6.9829   -0.8250    0.0000 N   0  0  0  0  0  0  0  0  0  0  0  0
    6.1579   -0.8250    0.0000 C   0  0  0  0  0  0  0  0  0  0  0  0
    5.7454   -0.1105    0.0000 C   0  0  0  0  0  0  0  0  0  0  0  0
    4.9204   -0.1105    0.0000 C   0  0  0  0  0  0  0  0  0  0  0  0
    4.5079   -0.8250    0.0000 C   0  0  0  0  0  0  0  0  0  0  0  0
    4.9204   -1.5395    0.0000 C   0  0  0  0  0  0  0  0  0  0  0  0
    5.7454   -1.5395    0.0000 C   0  0  0  0  0  0  0  0  0  0  0  0
    4.5079   -2.2539    0.0000 N   0  0  0  0  0  0  0  0  0  0  0  0
    4.9204   -2.9684    0.0000 C   0  0  0  0  0  0  0  0  0  0  0  0
    5.7454   -2.9684    0.0000 O   0  0  0  0  0  0  0  0  0  0  0  0
    4.5079   -3.6829    0.0000 C   0  0  2  0  0  0  0  0  0  0  0  0
    4.9204   -4.3974    0.0000 C   0  0  0  0  0  0  0  0  0  0  0  0
    3.6829   -3.6829    0.0000 C   0  0  0  0  0  0  0  0  0  0  0  0
    3.2704   -2.9684    0.0000 C   0  0  0  0  0  0  0  0  0  0  0  0
    2.4454   -2.9684    0.0000 C   0  0  0  0  0  0  0  0  0  0  0  0
    2.0329   -2.2539    0.0000 C   0  0  2  0  0  0  0  0  0  0  0  0
    1.2079   -2.2539    0.0000 N   0  0  0  0  0  0  0  0  0  0  0  0
    0.7954   -2.9684    0.0000 C   0  0  0  0  0  0  0  0  0  0  0  0
   -0.0296   -2.9684    0.0000 C   0  0  0  0  0  0  0  0  0  0  0  0
   -0.4421   -2.2539    0.0000 C   0  0  0  0  0  0  0  0  0  0  0  0
   -1.2671   -2.2539    0.0000 C   0  0  0  0  0  0  0  0  0  0  0  0
   -1.6796   -2.9684    0.0000 C   0  0  0  0  0  0  0  0  0  0  0  0
   -2.5046   -2.9684    0.0000 C   0  0  0  0  0  0  0  0  0  0  0  0
   -2.9171   -2.2539    0.0000 C   0  0  0  0  0  0  0  0  0  0  0  0
   -2.5046   -1.5395    0.0000 C   0  0  0  0  0  0  0  0  0  0  0  0
   -1.6796   -1.5395    0.0000 C   0  0  0  0  0  0  0  0  0  0  0  0
   -0.0296   -1.5395    0.0000 C   0  0  0  0  0  0  0  0  0  0  0  0
    0.7954   -1.5395    0.0000 C   0  0  0  0  0  0  0  0  0  0  0  0
    1.2079   -0.8250    0.0000 O   0  0  0  0  0  0  0  0  0  0  0  0
    2.4454   -1.5395    0.0000 C   0  0  0  0  0  0  0  0  0  0  0  0
    3.2704   -1.5395    0.0000 C   0  0  0  0  0  0  0  0  0  0  0  0
    3.6829   -0.8250    0.0000 C   0  0  0  0  0  0  0  0  0  0  0  0
    3.2704   -0.1105    0.0000 C   0  0  0  0  0  0  0  0  0  0  0  0
    2.4454   -0.1105    0.0000 C   0  0  0  0  0  0  0  0  0  0  0  0
    2.0329   -0.8250    0.0000 N   0  0  0  0  0  0  0  0  0  0  0  0
  1  2  1  0  0  0  0
  2  3  1  0  0  0  0
  3  4  2  0  0  0  0
  3  5  1  0  0  0  0
  5  6  1  0  0  0  0
  6  7  4  0  0  0  0
  7  8  4  0  0  0  0
  8  9  4  0  0  0  0
  9 10  4  0  0  0  0
 10 11  4  0  0  0  0
  6 11  4  0  0  0  0
 10 12  1  0  0  0  0
 12 13  1  0  0  0  0
 13 14  2  0  0  0  0
 13 15  1  0  0  0  0
 15 16  1  6  0  0  0
 15 17  1  0  0  0  0
 17 18  1  0  0  0  0
 18 19  1  0  0  0  0
 19 20  1  0  0  0  0
 20 21  1  6  0  0  0
 21 22  1  0  0  0  0
 22 23  1  0  0  0  0
 23 24  1  0  0  0  0
 24 25  1  0  0  0  0
 25 26  1  0  0  0  0
 26 27  1  0  0  0  0
 27 28  1  0  0  0  0
 28 29  1  0  0  0  0
 29 30  1  0  0  0  0
 25 30  1  0  0  0  0
 24 31  2  0  0  0  0
 31 32  1  0  0  0  0
 21 32  1  0  0  0  0
 32 33  2  0  0  0  0
 20 34  1  0  0  0  0
 34 35  4  0  0  0  0
 35 36  4  0  0  0  0
  9 36  1  0  0  0  0
 36 37  4  0  0  0  0
 37 38  4  0  0  0  0
 38 39  4  0  0  0  0
 34 39  4  0  0  0  0
M  END
>  <CdId>
358828

>  <Mol Weight>
530.6578

>  <Formula>
C31H38N4O4

>  <cmpd_chemblid>
CHEMBL4115226

>  <std_type>
Ki

>  <std_value>
30.05

>  <std_unit>
nM

>  <target_id>
CHEMBL2016

>  <target_name>
Coagulation factor IX

>  <organism>
Homo sapiens

>  <target_type>
SINGLE PROTEIN

$$$$

  Mrv0541 08052111042D          

 40 44  0  0  1  0            999 V2000
    3.9849    3.9849    0.0000 C   0  0  0  0  0  0  0  0  0  0  0  0
    4.3974    3.2704    0.0000 C   0  0  0  0  0  0  0  0  0  0  0  0
    5.2224    3.2704    0.0000 C   0  0  0  0  0  0  0  0  0  0  0  0
    5.6349    2.5559    0.0000 C   0  0  0  0  0  0  0  0  0  0  0  0
    6.4599    2.5559    0.0000 C   0  0  0  0  0  0  0  0  0  0  0  0
    6.8724    1.8414    0.0000 C   0  0  2  0  0  0  0  0  0  0  0  0
    7.6974    1.8414    0.0000 N   0  0  0  0  0  0  0  0  0  0  0  0
    8.1099    2.5559    0.0000 C   0  0  0  0  0  0  0  0  0  0  0  0
    8.9349    2.5559    0.0000 C   0  0  0  0  0  0  0  0  0  0  0  0
    9.3474    1.8414    0.0000 C   0  0  0  0  0  0  0  0  0  0  0  0
   10.1724    1.8414    0.0000 C   0  0  0  0  0  0  0  0  0  0  0  0
   10.5849    2.5559    0.0000 C   0  0  0  0  0  0  0  0  0  0  0  0
   10.1724    3.2704    0.0000 F   0  0  0  0  0  0  0  0  0  0  0  0
   11.4099    2.5559    0.0000 C   0  0  0  0  0  0  0  0  0  0  0  0
   11.8224    1.8414    0.0000 C   0  0  0  0  0  0  0  0  0  0  0  0
   11.4099    1.1270    0.0000 C   0  0  0  0  0  0  0  0  0  0  0  0
   11.8224    0.4125    0.0000 Cl  0  0  0  0  0  0  0  0  0  0  0  0
   10.5849    1.1270    0.0000 C   0  0  0  0  0  0  0  0  0  0  0  0
   10.1724    0.4125    0.0000 F   0  0  0  0  0  0  0  0  0  0  0  0
    8.9349    1.1270    0.0000 C   0  0  0  0  0  0  0  0  0  0  0  0
    8.1099    1.1270    0.0000 C   0  0  0  0  0  0  0  0  0  0  0  0
    7.6974    0.4125    0.0000 O   0  0  0  0  0  0  0  0  0  0  0  0
    6.4599    1.1270    0.0000 C   0  0  0  0  0  0  0  0  0  0  0  0
    5.6349    1.1270    0.0000 C   0  0  0  0  0  0  0  0  0  0  0  0
    5.2224    0.4125    0.0000 C   0  0  0  0  0  0  0  0  0  0  0  0
    5.6349   -0.3020    0.0000 C   0  0  0  0  0  0  0  0  0  0  0  0
    6.4599   -0.3020    0.0000 C   0  0  0  0  0  0  0  0  0  0  0  0
    6.8724    0.4125    0.0000 N   0  0  0  0  0  0  0  0  0  0  0  0
    4.3974    0.4125    0.0000 C   0  0  0  0  0  0  0  0  0  0  0  0
    3.9849   -0.3020    0.0000 C   0  0  0  0  0  0  0  0  0  0  0  0
    3.1599   -0.3020    0.0000 C   0  0  0  0  0  0  0  0  0  0  0  0
    2.7474    0.4125    0.0000 C   0  0  0  0  0  0  0  0  0  0  0  0
    1.9224    0.4125    0.0000 C   0  0  0  0  0  0  0  0  0  0  0  0
    1.5099   -0.3020    0.0000 O   0  0  0  0  0  0  0  0  0  0  0  0
    1.5099    1.1270    0.0000 O   0  0  0  0  0  0  0  0  0  0  0  0
    3.1599    1.1270    0.0000 C   0  0  0  0  0  0  0  0  0  0  0  0
    3.9849    1.1270    0.0000 C   0  0  0  0  0  0  0  0  0  0  0  0
    4.3974    1.8414    0.0000 N   0  0  0  0  0  0  0  0  0  0  0  0
    3.9849    2.5559    0.0000 C   0  0  0  0  0  0  0  0  0  0  0  0
    3.1599    2.5559    0.0000 O   0  0  0  0  0  0  0  0  0  0  0  0
  1  2  1  0  0  0  0
  2  3  1  0  0  0  0
  3  4  1  0  0  0  0
  4  5  1  0  0  0  0
  5  6  1  0  0  0  0
  6  7  1  6  0  0  0
  7  8  1  0  0  0  0
  8  9  1  0  0  0  0
  9 10  1  0  0  0  0
 10 11  1  0  0  0  0
 11 12  4  0  0  0  0
 12 13  1  0  0  0  0
 12 14  4  0  0  0  0
 14 15  4  0  0  0  0
 15 16  4  0  0  0  0
 16 17  1  0  0  0  0
 16 18  4  0  0  0  0
 11 18  4  0  0  0  0
 18 19  1  0  0  0  0
 10 20  2  0  0  0  0
 20 21  1  0  0  0  0
  7 21  1  0  0  0  0
 21 22  2  0  0  0  0
  6 23  1  0  0  0  0
 23 24  4  0  0  0  0
 24 25  4  0  0  0  0
 25 26  4  0  0  0  0
 26 27  4  0  0  0  0
 27 28  4  0  0  0  0
 23 28  4  0  0  0  0
 25 29  1  0  0  0  0
 29 30  4  0  0  0  0
 30 31  4  0  0  0  0
 31 32  4  0  0  0  0
 32 33  1  0  0  0  0
 33 34  2  0  0  0  0
 33 35  1  0  0  0  0
 32 36  4  0  0  0  0
 36 37  4  0  0  0  0
 29 37  4  0  0  0  0
 37 38  1  0  0  0  0
 38 39  1  0  0  0  0
  2 39  1  0  0  0  0
 39 40  2  0  0  0  0
M  END
>  <CdId>
358829

>  <Mol Weight>
565.995

>  <Formula>
C30H26ClF2N3O4

>  <cmpd_chemblid>
CHEMBL3938635

>  <std_type>
Ki

>  <std_value>
342.0

>  <std_unit>
nM

>  <target_id>
CHEMBL2016

>  <target_name>
Coagulation factor IX

>  <organism>
Homo sapiens

>  <target_type>
SINGLE PROTEIN

$$$$

  Mrv0541 08052111042D          

 39 43  0  0  1  0            999 V2000
    3.9849    3.9849    0.0000 C   0  0  0  0  0  0  0  0  0  0  0  0
    4.3974    3.2704    0.0000 C   0  0  0  0  0  0  0  0  0  0  0  0
    5.2224    3.2704    0.0000 C   0  0  0  0  0  0  0  0  0  0  0  0
    5.6349    2.5559    0.0000 C   0  0  0  0  0  0  0  0  0  0  0  0
    6.4599    2.5559    0.0000 C   0  0  0  0  0  0  0  0  0  0  0  0
    6.8724    1.8414    0.0000 C   0  0  2  0  0  0  0  0  0  0  0  0
    7.6974    1.8414    0.0000 N   0  0  0  0  0  0  0  0  0  0  0  0
    8.1099    2.5559    0.0000 C   0  0  0  0  0  0  0  0  0  0  0  0
    8.9349    2.5559    0.0000 C   0  0  0  0  0  0  0  0  0  0  0  0
    9.3474    1.8414    0.0000 C   0  0  0  0  0  0  0  0  0  0  0  0
   10.1724    1.8414    0.0000 C   0  0  0  0  0  0  0  0  0  0  0  0
   10.5849    2.5559    0.0000 C   0  0  0  0  0  0  0  0  0  0  0  0
   11.4099    2.5559    0.0000 C   0  0  0  0  0  0  0  0  0  0  0  0
   11.8224    1.8414    0.0000 C   0  0  0  0  0  0  0  0  0  0  0  0
   11.4099    1.1270    0.0000 C   0  0  0  0  0  0  0  0  0  0  0  0
   11.8224    0.4125    0.0000 Cl  0  0  0  0  0  0  0  0  0  0  0  0
   10.5849    1.1270    0.0000 C   0  0  0  0  0  0  0  0  0  0  0  0
   10.1724    0.4125    0.0000 F   0  0  0  0  0  0  0  0  0  0  0  0
    8.9349    1.1270    0.0000 C   0  0  0  0  0  0  0  0  0  0  0  0
    8.1099    1.1270    0.0000 C   0  0  0  0  0  0  0  0  0  0  0  0
    7.6974    0.4125    0.0000 O   0  0  0  0  0  0  0  0  0  0  0  0
    6.4599    1.1270    0.0000 C   0  0  0  0  0  0  0  0  0  0  0  0
    5.6349    1.1270    0.0000 C   0  0  0  0  0  0  0  0  0  0  0  0
    5.2224    0.4125    0.0000 C   0  0  0  0  0  0  0  0  0  0  0  0
    5.6349   -0.3020    0.0000 C   0  0  0  0  0  0  0  0  0  0  0  0
    6.4599   -0.3020    0.0000 C   0  0  0  0  0  0  0  0  0  0  0  0
    6.8724    0.4125    0.0000 N   0  0  0  0  0  0  0  0  0  0  0  0
    4.3974    0.4125    0.0000 C   0  0  0  0  0  0  0  0  0  0  0  0
    3.9849   -0.3020    0.0000 C   0  0  0  0  0  0  0  0  0  0  0  0
    3.1599   -0.3020    0.0000 C   0  0  0  0  0  0  0  0  0  0  0  0
    2.7474    0.4125    0.0000 C   0  0  0  0  0  0  0  0  0  0  0  0
    1.9224    0.4125    0.0000 C   0  0  0  0  0  0  0  0  0  0  0  0
    1.5099   -0.3020    0.0000 N   0  0  0  0  0  0  0  0  0  0  0  0
    1.5099    1.1270    0.0000 O   0  0  0  0  0  0  0  0  0  0  0  0
    3.1599    1.1270    0.0000 C   0  0  0  0  0  0  0  0  0  0  0  0
    3.9849    1.1270    0.0000 C   0  0  0  0  0  0  0  0  0  0  0  0
    4.3974    1.8414    0.0000 N   0  0  0  0  0  0  0  0  0  0  0  0
    3.9849    2.5559    0.0000 C   0  0  0  0  0  0  0  0  0  0  0  0
    3.1599    2.5559    0.0000 O   0  0  0  0  0  0  0  0  0  0  0  0
  1  2  1  0  0  0  0
  2  3  1  0  0  0  0
  3  4  1  0  0  0  0
  4  5  1  0  0  0  0
  5  6  1  0  0  0  0
  6  7  1  6  0  0  0
  7  8  1  0  0  0  0
  8  9  1  0  0  0  0
  9 10  1  0  0  0  0
 10 11  1  0  0  0  0
 11 12  4  0  0  0  0
 12 13  4  0  0  0  0
 13 14  4  0  0  0  0
 14 15  4  0  0  0  0
 15 16  1  0  0  0  0
 15 17  4  0  0  0  0
 11 17  4  0  0  0  0
 17 18  1  0  0  0  0
 10 19  2  0  0  0  0
 19 20  1  0  0  0  0
  7 20  1  0  0  0  0
 20 21  2  0  0  0  0
  6 22  1  0  0  0  0
 22 23  4  0  0  0  0
 23 24  4  0  0  0  0
 24 25  4  0  0  0  0
 25 26  4  0  0  0  0
 26 27  4  0  0  0  0
 22 27  4  0  0  0  0
 24 28  1  0  0  0  0
 28 29  4  0  0  0  0
 29 30  4  0  0  0  0
 30 31  4  0  0  0  0
 31 32  1  0  0  0  0
 32 33  1  0  0  0  0
 32 34  2  0  0  0  0
 31 35  4  0  0  0  0
 35 36  4  0  0  0  0
 28 36  4  0  0  0  0
 36 37  1  0  0  0  0
 37 38  1  0  0  0  0
  2 38  1  0  0  0  0
 38 39  2  0  0  0  0
M  END
>  <CdId>
358830

>  <Mol Weight>
547.02

>  <Formula>
C30H28ClFN4O3

>  <cmpd_chemblid>
CHEMBL3982389

>  <std_type>
Ki

>  <std_value>
104.3

>  <std_unit>
nM

>  <target_id>
CHEMBL2016

>  <target_name>
Coagulation factor IX

>  <organism>
Homo sapiens

>  <target_type>
SINGLE PROTEIN

$$$$

  Mrv0541 08052111042D          

 41 46  0  0  1  0            999 V2000
    3.9849    3.9849    0.0000 C   0  0  0  0  0  0  0  0  0  0  0  0
    4.3974    3.2704    0.0000 C   0  0  2  0  0  0  0  0  0  0  0  0
    5.2224    3.2704    0.0000 C   0  0  0  0  0  0  0  0  0  0  0  0
    5.6349    2.5559    0.0000 C   0  0  0  0  0  0  0  0  0  0  0  0
    6.4599    2.5559    0.0000 C   0  0  0  0  0  0  0  0  0  0  0  0
    6.8724    1.8414    0.0000 C   0  0  2  0  0  0  0  0  0  0  0  0
    7.6974    1.8414    0.0000 N   0  0  0  0  0  0  0  0  0  0  0  0
    8.1099    2.5559    0.0000 C   0  0  0  0  0  0  0  0  0  0  0  0
    8.9349    2.5559    0.0000 C   0  0  0  0  0  0  0  0  0  0  0  0
    9.3474    1.8414    0.0000 C   0  0  0  0  0  0  0  0  0  0  0  0
   10.1724    1.8414    0.0000 C   0  0  0  0  0  0  0  0  0  0  0  0
   10.5849    2.5559    0.0000 C   0  0  0  0  0  0  0  0  0  0  0  0
   11.4099    2.5559    0.0000 C   0  0  0  0  0  0  0  0  0  0  0  0
   11.8224    3.2704    0.0000 Cl  0  0  0  0  0  0  0  0  0  0  0  0
   11.8224    1.8414    0.0000 C   0  0  0  0  0  0  0  0  0  0  0  0
   11.4099    1.1270    0.0000 C   0  0  0  0  0  0  0  0  0  0  0  0
   10.5849    1.1270    0.0000 C   0  0  0  0  0  0  0  0  0  0  0  0
   10.1724    0.4125    0.0000 N   0  0  0  0  0  0  0  0  0  0  0  0
   10.5079   -0.3412    0.0000 C   0  0  0  0  0  0  0  0  0  0  0  0
    9.8948   -0.8932    0.0000 C   0  0  0  0  0  0  0  0  0  0  0  0
    9.1803   -0.4807    0.0000 N   0  0  0  0  0  0  0  0  0  0  0  0
    9.3519    0.3263    0.0000 N   0  0  0  0  0  0  0  0  0  0  0  0
    8.9349    1.1270    0.0000 C   0  0  0  0  0  0  0  0  0  0  0  0
    8.1099    1.1270    0.0000 C   0  0  0  0  0  0  0  0  0  0  0  0
    7.6974    0.4125    0.0000 O   0  0  0  0  0  0  0  0  0  0  0  0
    6.4599    1.1270    0.0000 C   0  0  0  0  0  0  0  0  0  0  0  0
    5.6349    1.1270    0.0000 C   0  0  0  0  0  0  0  0  0  0  0  0
    5.2224    0.4125    0.0000 C   0  0  0  0  0  0  0  0  0  0  0  0
    5.6349   -0.3020    0.0000 C   0  0  0  0  0  0  0  0  0  0  0  0
    6.4599   -0.3020    0.0000 C   0  0  0  0  0  0  0  0  0  0  0  0
    6.8724    0.4125    0.0000 N   0  0  0  0  0  0  0  0  0  0  0  0
    4.3974    0.4125    0.0000 C   0  0  0  0  0  0  0  0  0  0  0  0
    3.9849   -0.3020    0.0000 C   0  0  0  0  0  0  0  0  0  0  0  0
    3.1599   -0.3020    0.0000 C   0  0  0  0  0  0  0  0  0  0  0  0
    2.7474   -1.0164    0.0000 F   0  0  0  0  0  0  0  0  0  0  0  0
    2.7474    0.4125    0.0000 C   0  0  0  0  0  0  0  0  0  0  0  0
    3.1599    1.1270    0.0000 C   0  0  0  0  0  0  0  0  0  0  0  0
    3.9849    1.1270    0.0000 C   0  0  0  0  0  0  0  0  0  0  0  0
    4.3974    1.8414    0.0000 N   0  0  0  0  0  0  0  0  0  0  0  0
    3.9849    2.5559    0.0000 C   0  0  0  0  0  0  0  0  0  0  0  0
    3.1599    2.5559    0.0000 O   0  0  0  0  0  0  0  0  0  0  0  0
  2  1  1  6  0  0  0
  2  3  1  0  0  0  0
  3  4  1  0  0  0  0
  4  5  1  0  0  0  0
  5  6  1  0  0  0  0
  6  7  1  6  0  0  0
  7  8  1  0  0  0  0
  8  9  1  0  0  0  0
  9 10  1  0  0  0  0
 10 11  1  0  0  0  0
 11 12  4  0  0  0  0
 12 13  4  0  0  0  0
 13 14  1  0  0  0  0
 13 15  4  0  0  0  0
 15 16  4  0  0  0  0
 16 17  4  0  0  0  0
 11 17  4  0  0  0  0
 17 18  1  0  0  0  0
 18 19  4  0  0  0  0
 19 20  4  0  0  0  0
 20 21  4  0  0  0  0
 21 22  4  0  0  0  0
 18 22  4  0  0  0  0
 10 23  2  0  0  0  0
 23 24  1  0  0  0  0
  7 24  1  0  0  0  0
 24 25  2  0  0  0  0
  6 26  1  0  0  0  0
 26 27  4  0  0  0  0
 27 28  4  0  0  0  0
 28 29  4  0  0  0  0
 29 30  4  0  0  0  0
 30 31  4  0  0  0  0
 26 31  4  0  0  0  0
 28 32  1  0  0  0  0
 32 33  4  0  0  0  0
 33 34  4  0  0  0  0
 34 35  1  0  0  0  0
 34 36  4  0  0  0  0
 36 37  4  0  0  0  0
 37 38  4  0  0  0  0
 32 38  4  0  0  0  0
 38 39  1  0  0  0  0
 39 40  1  0  0  0  0
  2 40  1  0  0  0  0
 40 41  2  0  0  0  0
M  END
>  <CdId>
358832

>  <Mol Weight>
571.044

>  <Formula>
C31H28ClFN6O2

>  <cmpd_chemblid>
CHEMBL4114452

>  <std_type>
Ki

>  <std_value>
1.6

>  <std_unit>
nM

>  <target_id>
CHEMBL2016

>  <target_name>
Coagulation factor IX

>  <organism>
Homo sapiens

>  <target_type>
SINGLE PROTEIN

$$$$

  Mrv0541 08052111042D          

 36 39  0  0  0  0            999 V2000
   -0.7145   -6.1875    0.0000 C   0  0  0  0  0  0  0  0  0  0  0  0
   -1.4289   -5.7750    0.0000 N   0  0  0  0  0  0  0  0  0  0  0  0
   -2.1434   -6.1875    0.0000 C   0  0  0  0  0  0  0  0  0  0  0  0
   -1.4289   -4.9500    0.0000 C   0  0  0  0  0  0  0  0  0  0  0  0
   -2.1434   -4.5375    0.0000 C   0  0  0  0  0  0  0  0  0  0  0  0
   -2.8579   -4.9500    0.0000 C   0  0  0  0  0  0  0  0  0  0  0  0
   -3.5724   -4.5375    0.0000 C   0  0  0  0  0  0  0  0  0  0  0  0
   -3.5724   -3.7125    0.0000 C   0  0  0  0  0  0  0  0  0  0  0  0
   -2.8579   -3.3000    0.0000 C   0  0  0  0  0  0  0  0  0  0  0  0
   -2.1434   -3.7125    0.0000 C   0  0  0  0  0  0  0  0  0  0  0  0
   -1.4289   -3.3000    0.0000 N   0  0  0  0  0  0  0  0  0  0  0  0
   -0.7145   -3.7125    0.0000 C   0  0  0  0  0  0  0  0  0  0  0  0
   -0.7145   -4.5375    0.0000 O   0  0  0  0  0  0  0  0  0  0  0  0
    0.0000   -3.3000    0.0000 O   0  0  0  0  0  0  0  0  0  0  0  0
    0.7145   -3.7125    0.0000 C   0  0  0  0  0  0  0  0  0  0  0  0
    1.4289   -3.3000    0.0000 C   0  0  0  0  0  0  0  0  0  0  0  0
    2.1434   -3.7125    0.0000 O   0  0  0  0  0  0  0  0  0  0  0  0
    2.8579   -3.3000    0.0000 C   0  0  0  0  0  0  0  0  0  0  0  0
    2.8579   -2.4750    0.0000 C   0  0  0  0  0  0  0  0  0  0  0  0
    3.5724   -2.0625    0.0000 C   0  0  0  0  0  0  0  0  0  0  0  0
    3.5724   -1.2375    0.0000 F   0  0  0  0  0  0  0  0  0  0  0  0
    4.2868   -2.4750    0.0000 C   0  0  0  0  0  0  0  0  0  0  0  0
    4.2868   -3.3000    0.0000 C   0  0  0  0  0  0  0  0  0  0  0  0
    4.8999   -3.8520    0.0000 S   0  0  0  0  0  0  0  0  0  0  0  0
    4.5644   -4.6057    0.0000 C   0  0  0  0  0  0  0  0  0  0  0  0
    4.9769   -5.3202    0.0000 C   0  0  0  0  0  0  0  0  0  0  0  0
    5.8019   -5.3202    0.0000 N   0  0  0  0  0  0  0  0  0  0  0  0
    4.5644   -6.0346    0.0000 N   0  0  0  0  0  0  0  0  0  0  0  0
    3.7439   -4.5195    0.0000 C   0  0  0  0  0  0  0  0  0  0  0  0
    3.5724   -3.7125    0.0000 C   0  0  0  0  0  0  0  0  0  0  0  0
    1.4289   -2.4750    0.0000 C   0  0  0  0  0  0  0  0  0  0  0  0
    0.7145   -2.0625    0.0000 C   0  0  0  0  0  0  0  0  0  0  0  0
    0.7145   -1.2375    0.0000 C   0  0  0  0  0  0  0  0  0  0  0  0
    1.4289   -0.8250    0.0000 C   0  0  0  0  0  0  0  0  0  0  0  0
    2.1434   -1.2375    0.0000 C   0  0  0  0  0  0  0  0  0  0  0  0
    2.1434   -2.0625    0.0000 C   0  0  0  0  0  0  0  0  0  0  0  0
  1  2  1  0  0  0  0
  2  3  1  0  0  0  0
  2  4  1  0  0  0  0
  4  5  1  0  0  0  0
  5  6  4  0  0  0  0
  6  7  4  0  0  0  0
  7  8  4  0  0  0  0
  8  9  4  0  0  0  0
  9 10  4  0  0  0  0
  5 10  4  0  0  0  0
 10 11  1  0  0  0  0
 11 12  1  0  0  0  0
 12 13  2  0  0  0  0
 12 14  1  0  0  0  0
 14 15  1  0  0  0  0
 15 16  1  0  0  0  0
 16 17  1  0  0  0  0
 17 18  1  0  0  0  0
 18 19  4  0  0  0  0
 19 20  4  0  0  0  0
 20 21  1  0  0  0  0
 20 22  4  0  0  0  0
 22 23  4  0  0  0  0
 23 24  4  0  0  0  0
 24 25  4  0  0  0  0
 25 26  1  0  0  0  0
 26 27  2  0  0  0  0
 26 28  1  0  0  0  0
 25 29  4  0  0  0  0
 29 30  4  0  0  0  0
 18 30  4  0  0  0  0
 23 30  4  0  0  0  0
 16 31  1  0  0  0  0
 31 32  4  0  0  0  0
 32 33  4  0  0  0  0
 33 34  4  0  0  0  0
 34 35  4  0  0  0  0
 35 36  4  0  0  0  0
 31 36  4  0  0  0  0
M  END
>  <CdId>
358833

>  <Mol Weight>
506.592

>  <Formula>
C27H27FN4O3S

>  <cmpd_chemblid>
CHEMBL603242

>  <std_type>
Ki

>  <std_value>
8.1

>  <std_unit>
nM

>  <target_id>
CHEMBL2016

>  <target_name>
Coagulation factor IX

>  <organism>
Homo sapiens

>  <target_type>
SINGLE PROTEIN

$$$$

  Mrv0541 08052111042D          

 40 44  0  0  1  0            999 V2000
    8.6329   -2.2539    0.0000 C   0  0  0  0  0  0  0  0  0  0  0  0
    8.2204   -1.5395    0.0000 O   0  0  0  0  0  0  0  0  0  0  0  0
    7.3954   -1.5395    0.0000 C   0  0  0  0  0  0  0  0  0  0  0  0
    6.9829   -2.2539    0.0000 O   0  0  0  0  0  0  0  0  0  0  0  0
    6.9829   -0.8250    0.0000 N   0  0  0  0  0  0  0  0  0  0  0  0
    6.1579   -0.8250    0.0000 C   0  0  0  0  0  0  0  0  0  0  0  0
    5.7454   -0.1105    0.0000 C   0  0  0  0  0  0  0  0  0  0  0  0
    4.9204   -0.1105    0.0000 C   0  0  0  0  0  0  0  0  0  0  0  0
    4.5079   -0.8250    0.0000 C   0  0  0  0  0  0  0  0  0  0  0  0
    4.9204   -1.5395    0.0000 C   0  0  0  0  0  0  0  0  0  0  0  0
    5.7454   -1.5395    0.0000 C   0  0  0  0  0  0  0  0  0  0  0  0
    4.5079   -2.2539    0.0000 N   0  0  0  0  0  0  0  0  0  0  0  0
    4.9204   -2.9684    0.0000 C   0  0  0  0  0  0  0  0  0  0  0  0
    5.7454   -2.9684    0.0000 O   0  0  0  0  0  0  0  0  0  0  0  0
    4.5079   -3.6829    0.0000 C   0  0  2  0  0  0  0  0  0  0  0  0
    4.9204   -4.3974    0.0000 C   0  0  0  0  0  0  0  0  0  0  0  0
    3.6829   -3.6829    0.0000 C   0  0  0  0  0  0  0  0  0  0  0  0
    3.2704   -2.9684    0.0000 C   0  0  0  0  0  0  0  0  0  0  0  0
    2.4454   -2.9684    0.0000 C   0  0  0  0  0  0  0  0  0  0  0  0
    2.0329   -2.2539    0.0000 C   0  0  2  0  0  0  0  0  0  0  0  0
    1.2079   -2.2539    0.0000 N   0  0  0  0  0  0  0  0  0  0  0  0
    0.7954   -2.9684    0.0000 C   0  0  0  0  0  0  0  0  0  0  0  0
   -0.0296   -2.9684    0.0000 C   0  0  0  0  0  0  0  0  0  0  0  0
   -0.4421   -2.2539    0.0000 C   0  0  0  0  0  0  0  0  0  0  0  0
   -1.2671   -2.2539    0.0000 C   0  0  0  0  0  0  0  0  0  0  0  0
   -1.6796   -2.9684    0.0000 C   0  0  0  0  0  0  0  0  0  0  0  0
   -2.5046   -2.9684    0.0000 C   0  0  0  0  0  0  0  0  0  0  0  0
   -2.9171   -2.2539    0.0000 N   0  0  0  0  0  0  0  0  0  0  0  0
   -2.5046   -1.5395    0.0000 C   0  0  0  0  0  0  0  0  0  0  0  0
   -2.9171   -0.8250    0.0000 Cl  0  0  0  0  0  0  0  0  0  0  0  0
   -1.6796   -1.5395    0.0000 C   0  0  0  0  0  0  0  0  0  0  0  0
   -0.0296   -1.5395    0.0000 C   0  0  0  0  0  0  0  0  0  0  0  0
    0.7954   -1.5395    0.0000 C   0  0  0  0  0  0  0  0  0  0  0  0
    1.2079   -0.8250    0.0000 O   0  0  0  0  0  0  0  0  0  0  0  0
    2.4454   -1.5395    0.0000 C   0  0  0  0  0  0  0  0  0  0  0  0
    3.2704   -1.5395    0.0000 C   0  0  0  0  0  0  0  0  0  0  0  0
    3.6829   -0.8250    0.0000 C   0  0  0  0  0  0  0  0  0  0  0  0
    3.2704   -0.1105    0.0000 C   0  0  0  0  0  0  0  0  0  0  0  0
    2.4454   -0.1105    0.0000 C   0  0  0  0  0  0  0  0  0  0  0  0
    2.0329   -0.8250    0.0000 N   0  0  0  0  0  0  0  0  0  0  0  0
  1  2  1  0  0  0  0
  2  3  1  0  0  0  0
  3  4  2  0  0  0  0
  3  5  1  0  0  0  0
  5  6  1  0  0  0  0
  6  7  4  0  0  0  0
  7  8  4  0  0  0  0
  8  9  4  0  0  0  0
  9 10  4  0  0  0  0
 10 11  4  0  0  0  0
  6 11  4  0  0  0  0
 10 12  1  0  0  0  0
 12 13  1  0  0  0  0
 13 14  2  0  0  0  0
 13 15  1  0  0  0  0
 15 16  1  6  0  0  0
 15 17  1  0  0  0  0
 17 18  1  0  0  0  0
 18 19  1  0  0  0  0
 19 20  1  0  0  0  0
 20 21  1  6  0  0  0
 21 22  1  0  0  0  0
 22 23  1  0  0  0  0
 23 24  1  0  0  0  0
 24 25  1  0  0  0  0
 25 26  4  0  0  0  0
 26 27  4  0  0  0  0
 27 28  4  0  0  0  0
 28 29  4  0  0  0  0
 29 30  1  0  0  0  0
 29 31  4  0  0  0  0
 25 31  4  0  0  0  0
 24 32  2  0  0  0  0
 32 33  1  0  0  0  0
 21 33  1  0  0  0  0
 33 34  2  0  0  0  0
 20 35  1  0  0  0  0
 35 36  4  0  0  0  0
 36 37  4  0  0  0  0
  9 37  1  0  0  0  0
 37 38  4  0  0  0  0
 38 39  4  0  0  0  0
 39 40  4  0  0  0  0
 35 40  4  0  0  0  0
M  END
>  <CdId>
358834

>  <Mol Weight>
560.043

>  <Formula>
C30H30ClN5O4

>  <cmpd_chemblid>
CHEMBL4108602

>  <std_type>
Ki

>  <std_value>
446.4

>  <std_unit>
nM

>  <target_id>
CHEMBL2016

>  <target_name>
Coagulation factor IX

>  <organism>
Homo sapiens

>  <target_type>
SINGLE PROTEIN

$$$$

  Mrv0541 08052111042D          

 36 39  0  0  1  0            999 V2000
    0.0000    0.8250    0.0000 C   0  0  0  0  0  0  0  0  0  0  0  0
    0.0000    0.0000    0.0000 C   0  0  0  0  0  0  0  0  0  0  0  0
    0.7145   -0.4125    0.0000 C   0  0  0  0  0  0  0  0  0  0  0  0
    1.4289    0.0000    0.0000 C   0  0  0  0  0  0  0  0  0  0  0  0
    2.1434   -0.4125    0.0000 C   0  0  0  0  0  0  0  0  0  0  0  0
    2.8579    0.0000    0.0000 C   0  0  0  0  0  0  0  0  0  0  0  0
    2.8579    0.8250    0.0000 N   0  0  0  0  0  0  0  0  0  0  0  0
    3.5724   -0.4125    0.0000 N   0  0  0  0  0  0  0  0  0  0  0  0
    3.5724   -1.2375    0.0000 C   0  0  0  0  0  0  0  0  0  0  0  0
    2.8579   -1.6500    0.0000 C   0  0  0  0  0  0  0  0  0  0  0  0
    2.1434   -1.2375    0.0000 C   0  0  0  0  0  0  0  0  0  0  0  0
    1.4289   -1.6500    0.0000 C   0  0  0  0  0  0  0  0  0  0  0  0
    0.7145   -1.2375    0.0000 C   0  0  0  0  0  0  0  0  0  0  0  0
    0.0000   -1.6500    0.0000 C   0  0  0  0  0  0  0  0  0  0  0  0
    0.0000   -2.4750    0.0000 C   0  0  2  0  0  0  0  0  0  0  0  0
   -0.7145   -2.8875    0.0000 C   0  0  0  0  0  0  0  0  0  0  0  0
   -0.7145   -3.7125    0.0000 O   0  0  0  0  0  0  0  0  0  0  0  0
   -1.4289   -2.4750    0.0000 O   0  0  0  0  0  0  0  0  0  0  0  0
    0.7145   -2.8875    0.0000 N   0  0  0  0  0  0  0  0  0  0  0  0
    1.4681   -2.5519    0.0000 C   0  0  0  0  0  0  0  0  0  0  0  0
    2.0202   -3.1650    0.0000 C   0  0  0  0  0  0  0  0  0  0  0  0
    1.6077   -3.8795    0.0000 C   0  0  2  0  0  0  0  0  0  0  0  0
    1.9432   -4.6332    0.0000 N   0  0  0  0  0  0  0  0  0  0  0  0
    2.7637   -4.7194    0.0000 S   0  0  0  0  0  0  0  0  0  0  0  0
    2.6775   -5.5399    0.0000 O   0  0  0  0  0  0  0  0  0  0  0  0
    2.8500   -3.8989    0.0000 O   0  0  0  0  0  0  0  0  0  0  0  0
    3.5842   -4.8057    0.0000 C   0  0  0  0  0  0  0  0  0  0  0  0
    4.1362   -4.1926    0.0000 C   0  0  0  0  0  0  0  0  0  0  0  0
    4.8899   -4.5281    0.0000 N   0  0  0  0  0  0  0  0  0  0  0  0
    4.8037   -5.3486    0.0000 C   0  0  0  0  0  0  0  0  0  0  0  0
    5.4168   -5.9006    0.0000 N   0  0  0  0  0  0  0  0  0  0  0  0
    6.2014   -5.6457    0.0000 C   0  0  0  0  0  0  0  0  0  0  0  0
    5.2452   -6.7076    0.0000 C   0  0  0  0  0  0  0  0  0  0  0  0
    3.9967   -5.5201    0.0000 S   0  0  0  0  0  0  0  0  0  0  0  0
    0.8007   -3.7080    0.0000 C   0  0  0  0  0  0  0  0  0  0  0  0
    0.1876   -4.2600    0.0000 O   0  0  0  0  0  0  0  0  0  0  0  0
  1  2  1  0  0  0  0
  2  3  1  0  0  0  0
  3  4  4  0  0  0  0
  4  5  4  0  0  0  0
  5  6  4  0  0  0  0
  6  7  1  0  0  0  0
  6  8  4  0  0  0  0
  8  9  4  0  0  0  0
  9 10  4  0  0  0  0
 10 11  4  0  0  0  0
  5 11  4  0  0  0  0
 11 12  4  0  0  0  0
 12 13  4  0  0  0  0
  3 13  4  0  0  0  0
 13 14  1  0  0  0  0
 14 15  1  0  0  0  0
 15 16  1  0  0  0  0
 16 17  2  0  0  0  0
 16 18  1  0  0  0  0
 15 19  1  1  0  0  0
 19 20  1  0  0  0  0
 20 21  1  0  0  0  0
 21 22  1  0  0  0  0
 22 23  1  6  0  0  0
 23 24  1  0  0  0  0
 24 25  2  0  0  0  0
 24 26  2  0  0  0  0
 24 27  1  0  0  0  0
 27 28  4  0  0  0  0
 28 29  4  0  0  0  0
 29 30  4  0  0  0  0
 30 31  1  0  0  0  0
 31 32  1  0  0  0  0
 31 33  1  0  0  0  0
 30 34  4  0  0  0  0
 27 34  4  0  0  0  0
 22 35  1  0  0  0  0
 19 35  1  0  0  0  0
 35 36  2  0  0  0  0
M  END
>  <CdId>
358835

>  <Mol Weight>
532.636

>  <Formula>
C23H28N6O5S2

>  <cmpd_chemblid>
CHEMBL3934635

>  <std_type>
Ki

>  <std_value>
75.0

>  <std_unit>
nM

>  <target_id>
CHEMBL2016

>  <target_name>
Coagulation factor IX

>  <organism>
Homo sapiens

>  <target_type>
SINGLE PROTEIN

$$$$

  Mrv0541 08052111042D          

 37 42  0  0  1  0            999 V2000
   -0.2771   -3.5921    0.0000 C   0  0  0  0  0  0  0  0  0  0  0  0
    0.0319   -2.8271    0.0000 C   0  0  0  0  0  0  0  0  0  0  0  0
   -0.4760   -2.1770    0.0000 C   0  0  0  0  0  0  0  0  0  0  0  0
   -0.1669   -1.4121    0.0000 C   0  0  0  0  0  0  0  0  0  0  0  0
    0.6500   -1.2973    0.0000 C   0  0  0  0  0  0  0  0  0  0  0  0
    1.1580   -1.9474    0.0000 C   0  0  0  0  0  0  0  0  0  0  0  0
    1.9749   -1.8326    0.0000 C   0  0  1  0  0  0  0  0  0  0  0  0
    1.9461   -2.6571    0.0000 N   0  0  0  0  0  0  0  0  0  0  0  0
    2.6458   -3.0942    0.0000 C   0  0  0  0  0  0  0  0  0  0  0  0
    3.3742   -2.7069    0.0000 O   0  0  0  0  0  0  0  0  0  0  0  0
    2.6170   -3.9187    0.0000 C   0  0  0  0  0  0  0  0  0  0  0  0
    3.3166   -4.3559    0.0000 C   0  0  0  0  0  0  0  0  0  0  0  0
    3.2878   -5.1804    0.0000 C   0  0  0  0  0  0  0  0  0  0  0  0
    2.5594   -5.5677    0.0000 C   0  0  0  0  0  0  0  0  0  0  0  0
    2.5306   -6.3922    0.0000 N   0  0  0  0  0  0  0  0  0  0  0  0
    3.1807   -6.9002    0.0000 C   0  0  0  0  0  0  0  0  0  0  0  0
    2.8985   -7.6754    0.0000 N   0  0  0  0  0  0  0  0  0  0  0  0
    2.0741   -7.6466    0.0000 C   0  0  0  0  0  0  0  0  0  0  0  0
    1.5661   -8.2967    0.0000 C   0  0  0  0  0  0  0  0  0  0  0  0
    1.8466   -6.8536    0.0000 N   0  0  0  0  0  0  0  0  0  0  0  0
    1.8598   -5.1306    0.0000 C   0  0  0  0  0  0  0  0  0  0  0  0
    1.8886   -4.3061    0.0000 C   0  0  0  0  0  0  0  0  0  0  0  0
    1.1889   -3.8689    0.0000 Cl  0  0  0  0  0  0  0  0  0  0  0  0
    1.7200   -1.0479    0.0000 C   0  0  0  0  0  0  0  0  0  0  0  0
    2.2720   -0.4349    0.0000 C   0  0  0  0  0  0  0  0  0  0  0  0
    3.0790   -0.6064    0.0000 C   0  0  0  0  0  0  0  0  0  0  0  0
    3.7464   -0.1215    0.0000 N   0  0  0  0  0  0  0  0  0  0  0  0
    4.4139   -0.6064    0.0000 N   0  0  0  0  0  0  0  0  0  0  0  0
    5.2208   -0.4349    0.0000 C   0  0  0  0  0  0  0  0  0  0  0  0
    5.7729   -1.0479    0.0000 C   0  0  0  0  0  0  0  0  0  0  0  0
    6.5798   -0.8764    0.0000 C   0  0  0  0  0  0  0  0  0  0  0  0
    5.5179   -1.8326    0.0000 C   0  0  0  0  0  0  0  0  0  0  0  0
    4.7110   -2.0041    0.0000 C   0  0  0  0  0  0  0  0  0  0  0  0
    4.1589   -1.3910    0.0000 C   0  0  0  0  0  0  0  0  0  0  0  0
    3.3339   -1.3910    0.0000 C   0  0  0  0  0  0  0  0  0  0  0  0
    2.7819   -2.0041    0.0000 C   0  0  0  0  0  0  0  0  0  0  0  0
    0.8489   -2.7123    0.0000 C   0  0  0  0  0  0  0  0  0  0  0  0
  1  2  1  0  0  0  0
  2  3  4  0  0  0  0
  3  4  4  0  0  0  0
  4  5  4  0  0  0  0
  5  6  4  0  0  0  0
  7  6  1  1  0  0  0
  7  8  1  6  0  0  0
  8  9  1  0  0  0  0
  9 10  2  0  0  0  0
  9 11  1  0  0  0  0
 11 12  4  0  0  0  0
 12 13  4  0  0  0  0
 13 14  4  0  0  0  0
 14 15  1  0  0  0  0
 15 16  4  0  0  0  0
 16 17  4  0  0  0  0
 17 18  4  0  0  0  0
 18 19  1  0  0  0  0
 18 20  4  0  0  0  0
 15 20  4  0  0  0  0
 14 21  4  0  0  0  0
 21 22  4  0  0  0  0
 11 22  4  0  0  0  0
 22 23  1  0  0  0  0
  7 24  1  0  0  0  0
 24 25  1  0  0  0  0
 25 26  1  0  0  0  0
 26 27  4  0  0  0  0
 27 28  4  0  0  0  0
 28 29  4  0  0  0  0
 29 30  4  0  0  0  0
 30 31  1  0  0  0  0
 30 32  4  0  0  0  0
 32 33  4  0  0  0  0
 33 34  4  0  0  0  0
 28 34  4  0  0  0  0
 34 35  4  0  0  0  0
 26 35  4  0  0  0  0
 35 36  1  0  0  0  0
  7 36  1  0  0  0  0
  6 37  4  0  0  0  0
  2 37  4  0  0  0  0
M  END
>  <CdId>
358836

>  <Mol Weight>
511.017

>  <Formula>
C29H27ClN6O

>  <cmpd_chemblid>
CHEMBL3628838

>  <std_type>
Ki

>  <std_value>
2.1

>  <std_unit>
nM

>  <target_id>
CHEMBL2016

>  <target_name>
Coagulation factor IX

>  <organism>
Homo sapiens

>  <target_type>
SINGLE PROTEIN

$$$$

  Mrv0541 08052111042D          

 41 45  0  0  1  0            999 V2000
    4.5375   -2.9684    0.0000 C   0  0  0  0  0  0  0  0  0  0  0  0
    4.1250   -2.2539    0.0000 O   0  0  0  0  0  0  0  0  0  0  0  0
    3.3000   -2.2539    0.0000 C   0  0  0  0  0  0  0  0  0  0  0  0
    2.8875   -2.9684    0.0000 O   0  0  0  0  0  0  0  0  0  0  0  0
    2.8875   -1.5395    0.0000 C   0  0  0  0  0  0  0  0  0  0  0  0
    3.3000   -0.8250    0.0000 C   0  0  0  0  0  0  0  0  0  0  0  0
    2.8875   -0.1105    0.0000 C   0  0  0  0  0  0  0  0  0  0  0  0
    2.0625   -0.1105    0.0000 C   0  0  0  0  0  0  0  0  0  0  0  0
    1.6500   -0.8250    0.0000 C   0  0  0  0  0  0  0  0  0  0  0  0
    2.0625   -1.5395    0.0000 C   0  0  0  0  0  0  0  0  0  0  0  0
    0.8250   -0.8250    0.0000 C   0  0  0  0  0  0  0  0  0  0  0  0
    0.4125   -1.5395    0.0000 C   0  0  0  0  0  0  0  0  0  0  0  0
   -0.4125   -1.5395    0.0000 C   0  0  0  0  0  0  0  0  0  0  0  0
   -0.8250   -0.8250    0.0000 C   0  0  0  0  0  0  0  0  0  0  0  0
   -0.4125   -0.1105    0.0000 C   0  0  0  0  0  0  0  0  0  0  0  0
    0.4125   -0.1105    0.0000 C   0  0  0  0  0  0  0  0  0  0  0  0
   -0.8250    0.6039    0.0000 C   0  0  1  0  0  0  0  0  0  0  0  0
   -1.6500    0.6039    0.0000 N   0  0  0  0  0  0  0  0  0  0  0  0
   -2.0625   -0.1105    0.0000 C   0  0  0  0  0  0  0  0  0  0  0  0
   -2.8875   -0.1105    0.0000 C   0  0  0  0  0  0  0  0  0  0  0  0
   -3.3000    0.6039    0.0000 C   0  0  0  0  0  0  0  0  0  0  0  0
   -4.1250    0.6039    0.0000 C   0  0  0  0  0  0  0  0  0  0  0  0
   -4.5375   -0.1105    0.0000 C   0  0  0  0  0  0  0  0  0  0  0  0
   -4.1250   -0.8250    0.0000 Br  0  0  0  0  0  0  0  0  0  0  0  0
   -5.3625   -0.1105    0.0000 C   0  0  0  0  0  0  0  0  0  0  0  0
   -5.7750    0.6039    0.0000 C   0  0  0  0  0  0  0  0  0  0  0  0
   -5.3625    1.3184    0.0000 C   0  0  0  0  0  0  0  0  0  0  0  0
   -5.7750    2.0329    0.0000 Cl  0  0  0  0  0  0  0  0  0  0  0  0
   -4.5375    1.3184    0.0000 C   0  0  0  0  0  0  0  0  0  0  0  0
   -4.1250    2.0329    0.0000 F   0  0  0  0  0  0  0  0  0  0  0  0
   -2.8875    1.3184    0.0000 C   0  0  0  0  0  0  0  0  0  0  0  0
   -2.0625    1.3184    0.0000 C   0  0  0  0  0  0  0  0  0  0  0  0
   -1.6500    2.0329    0.0000 O   0  0  0  0  0  0  0  0  0  0  0  0
   -0.4125    1.3184    0.0000 C   0  0  0  0  0  0  0  0  0  0  0  0
    0.4125    1.3184    0.0000 C   0  0  0  0  0  0  0  0  0  0  0  0
    0.8250    2.0329    0.0000 C   0  0  0  0  0  0  0  0  0  0  0  0
    1.6500    2.0329    0.0000 C   0  0  1  0  0  0  0  0  0  0  0  0
    2.0625    2.7474    0.0000 C   0  0  0  0  0  0  0  0  0  0  0  0
    2.0625    1.3184    0.0000 C   0  0  0  0  0  0  0  0  0  0  0  0
    2.8875    1.3184    0.0000 O   0  0  0  0  0  0  0  0  0  0  0  0
    1.6500    0.6039    0.0000 N   0  0  0  0  0  0  0  0  0  0  0  0
  1  2  1  0  0  0  0
  2  3  1  0  0  0  0
  3  4  2  0  0  0  0
  3  5  1  0  0  0  0
  5  6  4  0  0  0  0
  6  7  4  0  0  0  0
  7  8  4  0  0  0  0
  8  9  4  0  0  0  0
  9 10  4  0  0  0  0
  5 10  4  0  0  0  0
  9 11  1  0  0  0  0
 11 12  4  0  0  0  0
 12 13  4  0  0  0  0
 13 14  4  0  0  0  0
 14 15  4  0  0  0  0
 15 16  4  0  0  0  0
 11 16  4  0  0  0  0
 15 17  1  0  0  0  0
 17 18  1  1  0  0  0
 18 19  1  0  0  0  0
 19 20  1  0  0  0  0
 20 21  1  0  0  0  0
 21 22  1  0  0  0  0
 22 23  4  0  0  0  0
 23 24  1  0  0  0  0
 23 25  4  0  0  0  0
 25 26  4  0  0  0  0
 26 27  4  0  0  0  0
 27 28  1  0  0  0  0
 27 29  4  0  0  0  0
 22 29  4  0  0  0  0
 29 30  1  0  0  0  0
 21 31  2  0  0  0  0
 31 32  1  0  0  0  0
 18 32  1  0  0  0  0
 32 33  2  0  0  0  0
 17 34  1  0  0  0  0
 34 35  1  0  0  0  0
 35 36  1  0  0  0  0
 36 37  1  0  0  0  0
 37 38  1  1  0  0  0
 37 39  1  0  0  0  0
 39 40  2  0  0  0  0
 39 41  1  0  0  0  0
  8 41  1  0  0  0  0
M  END
>  <CdId>
358837

>  <Mol Weight>
639.939

>  <Formula>
C32H29BrClFN2O4

>  <cmpd_chemblid>
CHEMBL4113927

>  <std_type>
Ki

>  <std_value>
511.5

>  <std_unit>
nM

>  <target_id>
CHEMBL2016

>  <target_name>
Coagulation factor IX

>  <organism>
Homo sapiens

>  <target_type>
SINGLE PROTEIN

$$$$

  Mrv0541 08052111042D          

 34 37  0  0  0  0            999 V2000
    3.9934    8.2500    0.0000 C   0  0  0  0  0  0  0  0  0  0  0  0
    3.9934    7.4250    0.0000 N   0  0  0  0  0  0  0  0  0  0  0  0
    3.2789    7.0125    0.0000 C   0  0  0  0  0  0  0  0  0  0  0  0
    4.7079    7.0125    0.0000 C   0  0  0  0  0  0  0  0  0  0  0  0
    5.4223    7.4250    0.0000 O   0  0  0  0  0  0  0  0  0  0  0  0
    4.7079    6.1875    0.0000 C   0  0  0  0  0  0  0  0  0  0  0  0
    5.4223    5.7750    0.0000 C   0  0  0  0  0  0  0  0  0  0  0  0
    5.4223    4.9500    0.0000 C   0  0  0  0  0  0  0  0  0  0  0  0
    4.7079    4.5375    0.0000 C   0  0  0  0  0  0  0  0  0  0  0  0
    4.7079    3.7125    0.0000 N   0  0  0  0  0  0  0  0  0  0  0  0
    3.9934    3.3000    0.0000 C   0  0  0  0  0  0  0  0  0  0  0  0
    3.2789    3.7125    0.0000 O   0  0  0  0  0  0  0  0  0  0  0  0
    3.9934    2.4750    0.0000 C   0  0  0  0  0  0  0  0  0  0  0  0
    3.2789    2.0625    0.0000 O   0  0  0  0  0  0  0  0  0  0  0  0
    3.2789    1.2375    0.0000 C   0  0  0  0  0  0  0  0  0  0  0  0
    3.9934    0.8250    0.0000 C   0  0  0  0  0  0  0  0  0  0  0  0
    3.9934    0.0000    0.0000 C   0  0  0  0  0  0  0  0  0  0  0  0
    3.2789   -0.4125    0.0000 C   0  0  0  0  0  0  0  0  0  0  0  0
    2.5645    0.0000    0.0000 C   0  0  0  0  0  0  0  0  0  0  0  0
    1.7798   -0.2549    0.0000 S   0  0  0  0  0  0  0  0  0  0  0  0
    1.2949    0.4125    0.0000 C   0  0  0  0  0  0  0  0  0  0  0  0
    0.4699    0.4125    0.0000 C   0  0  0  0  0  0  0  0  0  0  0  0
    0.0574   -0.3020    0.0000 N   0  0  0  0  0  0  0  0  0  0  0  0
    0.0574    1.1270    0.0000 N   0  0  0  0  0  0  0  0  0  0  0  0
    1.7798    1.0799    0.0000 C   0  0  0  0  0  0  0  0  0  0  0  0
    2.5645    0.8250    0.0000 C   0  0  0  0  0  0  0  0  0  0  0  0
    4.7079    2.0625    0.0000 C   0  0  0  0  0  0  0  0  0  0  0  0
    5.4223    2.4750    0.0000 C   0  0  0  0  0  0  0  0  0  0  0  0
    6.1368    2.0625    0.0000 C   0  0  0  0  0  0  0  0  0  0  0  0
    6.1368    1.2375    0.0000 C   0  0  0  0  0  0  0  0  0  0  0  0
    5.4223    0.8250    0.0000 C   0  0  0  0  0  0  0  0  0  0  0  0
    4.7079    1.2375    0.0000 C   0  0  0  0  0  0  0  0  0  0  0  0
    3.9934    4.9500    0.0000 C   0  0  0  0  0  0  0  0  0  0  0  0
    3.9934    5.7750    0.0000 C   0  0  0  0  0  0  0  0  0  0  0  0
  1  2  1  0  0  0  0
  2  3  1  0  0  0  0
  2  4  1  0  0  0  0
  4  5  2  0  0  0  0
  4  6  1  0  0  0  0
  6  7  4  0  0  0  0
  7  8  4  0  0  0  0
  8  9  4  0  0  0  0
  9 10  1  0  0  0  0
 10 11  1  0  0  0  0
 11 12  2  0  0  0  0
 11 13  1  0  0  0  0
 13 14  1  0  0  0  0
 14 15  1  0  0  0  0
 15 16  4  0  0  0  0
 16 17  4  0  0  0  0
 17 18  4  0  0  0  0
 18 19  4  0  0  0  0
 19 20  4  0  0  0  0
 20 21  4  0  0  0  0
 21 22  1  0  0  0  0
 22 23  2  0  0  0  0
 22 24  1  0  0  0  0
 21 25  4  0  0  0  0
 25 26  4  0  0  0  0
 15 26  4  0  0  0  0
 19 26  4  0  0  0  0
 13 27  1  0  0  0  0
 27 28  4  0  0  0  0
 28 29  4  0  0  0  0
 29 30  4  0  0  0  0
 30 31  4  0  0  0  0
 31 32  4  0  0  0  0
 27 32  4  0  0  0  0
  9 33  4  0  0  0  0
 33 34  4  0  0  0  0
  6 34  4  0  0  0  0
M  END
>  <CdId>
358838

>  <Mol Weight>
472.559

>  <Formula>
C26H24N4O3S

>  <cmpd_chemblid>
CHEMBL599613

>  <std_type>
Ki

>  <std_value>
370.0

>  <std_unit>
nM

>  <target_id>
CHEMBL2016

>  <target_name>
Coagulation factor IX

>  <organism>
Homo sapiens

>  <target_type>
SINGLE PROTEIN

$$$$

  Mrv0541 08052111042D          

 44 48  0  0  1  0            999 V2000
    9.4579   -2.2539    0.0000 C   0  0  0  0  0  0  0  0  0  0  0  0
    8.6329   -2.2539    0.0000 C   0  0  0  0  0  0  0  0  0  0  0  0
    8.2204   -2.9684    0.0000 O   0  0  0  0  0  0  0  0  0  0  0  0
    8.2204   -1.5395    0.0000 N   0  0  0  0  0  0  0  0  0  0  0  0
    7.3954   -1.5395    0.0000 C   0  0  0  0  0  0  0  0  0  0  0  0
    6.9829   -2.2539    0.0000 S   0  0  0  0  0  0  0  0  0  0  0  0
    6.9829   -0.8250    0.0000 N   0  0  0  0  0  0  0  0  0  0  0  0
    6.1579   -0.8250    0.0000 C   0  0  0  0  0  0  0  0  0  0  0  0
    5.7454   -0.1105    0.0000 C   0  0  0  0  0  0  0  0  0  0  0  0
    4.9204   -0.1105    0.0000 C   0  0  0  0  0  0  0  0  0  0  0  0
    4.5079   -0.8250    0.0000 C   0  0  0  0  0  0  0  0  0  0  0  0
    4.9204   -1.5395    0.0000 C   0  0  0  0  0  0  0  0  0  0  0  0
    5.7454   -1.5395    0.0000 C   0  0  0  0  0  0  0  0  0  0  0  0
    4.5079   -2.2539    0.0000 N   0  0  0  0  0  0  0  0  0  0  0  0
    4.9204   -2.9684    0.0000 C   0  0  0  0  0  0  0  0  0  0  0  0
    5.7454   -2.9684    0.0000 O   0  0  0  0  0  0  0  0  0  0  0  0
    4.5079   -3.6829    0.0000 C   0  0  2  0  0  0  0  0  0  0  0  0
    4.9204   -4.3974    0.0000 C   0  0  0  0  0  0  0  0  0  0  0  0
    3.6829   -3.6829    0.0000 C   0  0  0  0  0  0  0  0  0  0  0  0
    3.2704   -2.9684    0.0000 C   0  0  0  0  0  0  0  0  0  0  0  0
    2.4454   -2.9684    0.0000 C   0  0  0  0  0  0  0  0  0  0  0  0
    2.0329   -2.2539    0.0000 C   0  0  2  0  0  0  0  0  0  0  0  0
    1.2079   -2.2539    0.0000 N   0  0  0  0  0  0  0  0  0  0  0  0
    0.7954   -2.9684    0.0000 C   0  0  0  0  0  0  0  0  0  0  0  0
   -0.0296   -2.9684    0.0000 C   0  0  0  0  0  0  0  0  0  0  0  0
   -0.4421   -2.2539    0.0000 C   0  0  0  0  0  0  0  0  0  0  0  0
   -1.2671   -2.2539    0.0000 C   0  0  0  0  0  0  0  0  0  0  0  0
   -1.6796   -2.9684    0.0000 C   0  0  0  0  0  0  0  0  0  0  0  0
   -1.2671   -3.6829    0.0000 F   0  0  0  0  0  0  0  0  0  0  0  0
   -2.5046   -2.9684    0.0000 C   0  0  0  0  0  0  0  0  0  0  0  0
   -2.9171   -2.2539    0.0000 C   0  0  0  0  0  0  0  0  0  0  0  0
   -2.5046   -1.5395    0.0000 C   0  0  0  0  0  0  0  0  0  0  0  0
   -2.9171   -0.8250    0.0000 Cl  0  0  0  0  0  0  0  0  0  0  0  0
   -1.6796   -1.5395    0.0000 C   0  0  0  0  0  0  0  0  0  0  0  0
   -1.2671   -0.8250    0.0000 F   0  0  0  0  0  0  0  0  0  0  0  0
   -0.0296   -1.5395    0.0000 C   0  0  0  0  0  0  0  0  0  0  0  0
    0.7954   -1.5395    0.0000 C   0  0  0  0  0  0  0  0  0  0  0  0
    1.2079   -0.8250    0.0000 O   0  0  0  0  0  0  0  0  0  0  0  0
    2.4454   -1.5395    0.0000 C   0  0  0  0  0  0  0  0  0  0  0  0
    3.2704   -1.5395    0.0000 C   0  0  0  0  0  0  0  0  0  0  0  0
    3.6829   -0.8250    0.0000 C   0  0  0  0  0  0  0  0  0  0  0  0
    3.2704   -0.1105    0.0000 C   0  0  0  0  0  0  0  0  0  0  0  0
    2.4454   -0.1105    0.0000 C   0  0  0  0  0  0  0  0  0  0  0  0
    2.0329   -0.8250    0.0000 N   0  0  0  0  0  0  0  0  0  0  0  0
  1  2  1  0  0  0  0
  2  3  2  0  0  0  0
  2  4  1  0  0  0  0
  4  5  1  0  0  0  0
  5  6  2  0  0  0  0
  5  7  1  0  0  0  0
  7  8  1  0  0  0  0
  8  9  4  0  0  0  0
  9 10  4  0  0  0  0
 10 11  4  0  0  0  0
 11 12  4  0  0  0  0
 12 13  4  0  0  0  0
  8 13  4  0  0  0  0
 12 14  1  0  0  0  0
 14 15  1  0  0  0  0
 15 16  2  0  0  0  0
 15 17  1  0  0  0  0
 17 18  1  6  0  0  0
 17 19  1  0  0  0  0
 19 20  1  0  0  0  0
 20 21  1  0  0  0  0
 21 22  1  0  0  0  0
 22 23  1  6  0  0  0
 23 24  1  0  0  0  0
 24 25  1  0  0  0  0
 25 26  1  0  0  0  0
 26 27  1  0  0  0  0
 27 28  4  0  0  0  0
 28 29  1  0  0  0  0
 28 30  4  0  0  0  0
 30 31  4  0  0  0  0
 31 32  4  0  0  0  0
 32 33  1  0  0  0  0
 32 34  4  0  0  0  0
 27 34  4  0  0  0  0
 34 35  1  0  0  0  0
 26 36  2  0  0  0  0
 36 37  1  0  0  0  0
 23 37  1  0  0  0  0
 37 38  2  0  0  0  0
 22 39  1  0  0  0  0
 39 40  4  0  0  0  0
 40 41  4  0  0  0  0
 11 41  1  0  0  0  0
 41 42  4  0  0  0  0
 42 43  4  0  0  0  0
 43 44  4  0  0  0  0
 39 44  4  0  0  0  0
M  END
>  <CdId>
358839

>  <Mol Weight>
638.127

>  <Formula>
C32H30ClF2N5O3S

>  <cmpd_chemblid>
CHEMBL4114612

>  <std_type>
Ki

>  <std_value>
7.86

>  <std_unit>
nM

>  <target_id>
CHEMBL2016

>  <target_name>
Coagulation factor IX

>  <organism>
Homo sapiens

>  <target_type>
SINGLE PROTEIN

$$$$

  Mrv0541 08052111042D          

 37 41  0  0  0  0            999 V2000
    4.2010   -5.1401    0.0000 N   0  0  0  0  0  0  0  0  0  0  0  0
    3.3760   -5.1401    0.0000 C   0  0  0  0  0  0  0  0  0  0  0  0
    2.9635   -4.4256    0.0000 N   0  0  0  0  0  0  0  0  0  0  0  0
    2.9635   -5.8546    0.0000 C   0  0  0  0  0  0  0  0  0  0  0  0
    3.3760   -6.5690    0.0000 C   0  0  0  0  0  0  0  0  0  0  0  0
    2.9635   -7.2835    0.0000 C   0  0  0  0  0  0  0  0  0  0  0  0
    2.1385   -7.2835    0.0000 C   0  0  0  0  0  0  0  0  0  0  0  0
    1.7260   -6.5690    0.0000 C   0  0  0  0  0  0  0  0  0  0  0  0
    0.9010   -6.5690    0.0000 N   0  0  0  0  0  0  0  0  0  0  0  0
    0.4161   -7.2365    0.0000 N   0  0  0  0  0  0  0  0  0  0  0  0
   -0.3686   -6.9815    0.0000 C   0  0  0  0  0  0  0  0  0  0  0  0
   -1.0360   -7.4664    0.0000 C   0  0  0  0  0  0  0  0  0  0  0  0
   -1.7034   -7.9514    0.0000 F   0  0  0  0  0  0  0  0  0  0  0  0
   -1.5209   -6.7990    0.0000 F   0  0  0  0  0  0  0  0  0  0  0  0
   -0.5511   -8.1339    0.0000 F   0  0  0  0  0  0  0  0  0  0  0  0
   -0.3686   -6.1565    0.0000 C   0  0  0  0  0  0  0  0  0  0  0  0
    0.4161   -5.9016    0.0000 C   0  0  0  0  0  0  0  0  0  0  0  0
    0.6710   -5.1170    0.0000 C   0  0  0  0  0  0  0  0  0  0  0  0
    1.4780   -4.9454    0.0000 O   0  0  0  0  0  0  0  0  0  0  0  0
    0.1190   -4.5039    0.0000 N   0  0  0  0  0  0  0  0  0  0  0  0
    0.3739   -3.7192    0.0000 C   0  0  0  0  0  0  0  0  0  0  0  0
   -0.1781   -3.1062    0.0000 C   0  0  0  0  0  0  0  0  0  0  0  0
    0.0768   -2.3215    0.0000 C   0  0  0  0  0  0  0  0  0  0  0  0
    0.8838   -2.1500    0.0000 C   0  0  0  0  0  0  0  0  0  0  0  0
    1.1387   -1.3654    0.0000 N   0  0  0  0  0  0  0  0  0  0  0  0
    0.6538   -0.6979    0.0000 C   0  0  0  0  0  0  0  0  0  0  0  0
    1.1387   -0.0305    0.0000 N   0  0  0  0  0  0  0  0  0  0  0  0
    1.9233   -0.2854    0.0000 C   0  0  0  0  0  0  0  0  0  0  0  0
    2.6378    0.1271    0.0000 C   0  0  0  0  0  0  0  0  0  0  0  0
    3.3523   -0.2854    0.0000 C   0  0  0  0  0  0  0  0  0  0  0  0
    3.3523   -1.1104    0.0000 C   0  0  0  0  0  0  0  0  0  0  0  0
    2.6378   -1.5229    0.0000 N   0  0  0  0  0  0  0  0  0  0  0  0
    1.9233   -1.1104    0.0000 C   0  0  0  0  0  0  0  0  0  0  0  0
    1.4358   -2.7631    0.0000 C   0  0  0  0  0  0  0  0  0  0  0  0
    1.1809   -3.5477    0.0000 C   0  0  0  0  0  0  0  0  0  0  0  0
    1.7329   -4.1608    0.0000 F   0  0  0  0  0  0  0  0  0  0  0  0
    2.1385   -5.8546    0.0000 C   0  0  0  0  0  0  0  0  0  0  0  0
  1  2  2  0  0  0  0
  2  3  1  0  0  0  0
  2  4  1  0  0  0  0
  4  5  4  0  0  0  0
  5  6  4  0  0  0  0
  6  7  4  0  0  0  0
  7  8  4  0  0  0  0
  8  9  1  0  0  0  0
  9 10  4  0  0  0  0
 10 11  4  0  0  0  0
 11 12  1  0  0  0  0
 12 13  1  0  0  0  0
 12 14  1  0  0  0  0
 12 15  1  0  0  0  0
 11 16  4  0  0  0  0
 16 17  4  0  0  0  0
  9 17  4  0  0  0  0
 17 18  1  0  0  0  0
 18 19  2  0  0  0  0
 18 20  1  0  0  0  0
 20 21  1  0  0  0  0
 21 22  4  0  0  0  0
 22 23  4  0  0  0  0
 23 24  4  0  0  0  0
 24 25  1  0  0  0  0
 25 26  4  0  0  0  0
 26 27  4  0  0  0  0
 27 28  4  0  0  0  0
 28 29  4  0  0  0  0
 29 30  4  0  0  0  0
 30 31  4  0  0  0  0
 31 32  4  0  0  0  0
 32 33  4  0  0  0  0
 28 33  4  0  0  0  0
 25 33  4  0  0  0  0
 24 34  4  0  0  0  0
 34 35  4  0  0  0  0
 21 35  4  0  0  0  0
 35 36  1  0  0  0  0
  8 37  4  0  0  0  0
  4 37  4  0  0  0  0
M  END
>  <CdId>
358840

>  <Mol Weight>
508.4305

>  <Formula>
C24H16F4N8O

>  <cmpd_chemblid>
CHEMBL183785

>  <std_type>
Ki

>  <std_value>
13.0

>  <std_unit>
nM

>  <target_id>
CHEMBL2016

>  <target_name>
Coagulation factor IX

>  <organism>
Homo sapiens

>  <target_type>
SINGLE PROTEIN

$$$$

  Mrv0541 08052111042D          

 44 49  0  0  1  0            999 V2000
    3.9849    3.9849    0.0000 C   0  0  0  0  0  0  0  0  0  0  0  0
    4.3974    3.2704    0.0000 C   0  0  2  0  0  0  0  0  0  0  0  0
    5.2224    3.2704    0.0000 C   0  0  0  0  0  0  0  0  0  0  0  0
    5.6349    2.5559    0.0000 C   0  0  0  0  0  0  0  0  0  0  0  0
    6.4599    2.5559    0.0000 C   0  0  0  0  0  0  0  0  0  0  0  0
    6.8724    1.8414    0.0000 C   0  0  2  0  0  0  0  0  0  0  0  0
    7.6974    1.8414    0.0000 N   0  0  0  0  0  0  0  0  0  0  0  0
    8.1099    2.5559    0.0000 C   0  0  0  0  0  0  0  0  0  0  0  0
    8.9349    2.5559    0.0000 C   0  0  0  0  0  0  0  0  0  0  0  0
    9.3474    1.8414    0.0000 C   0  0  0  0  0  0  0  0  0  0  0  0
   10.1724    1.8414    0.0000 C   0  0  0  0  0  0  0  0  0  0  0  0
   10.5849    2.5559    0.0000 C   0  0  0  0  0  0  0  0  0  0  0  0
   10.1724    3.2704    0.0000 F   0  0  0  0  0  0  0  0  0  0  0  0
   11.4099    2.5559    0.0000 C   0  0  0  0  0  0  0  0  0  0  0  0
   11.8224    1.8414    0.0000 C   0  0  0  0  0  0  0  0  0  0  0  0
   11.4099    1.1270    0.0000 C   0  0  0  0  0  0  0  0  0  0  0  0
   11.8224    0.4125    0.0000 Cl  0  0  0  0  0  0  0  0  0  0  0  0
   10.5849    1.1270    0.0000 C   0  0  0  0  0  0  0  0  0  0  0  0
   10.1724    0.4125    0.0000 F   0  0  0  0  0  0  0  0  0  0  0  0
    8.9349    1.1270    0.0000 C   0  0  0  0  0  0  0  0  0  0  0  0
    8.1099    1.1270    0.0000 C   0  0  0  0  0  0  0  0  0  0  0  0
    7.6974    0.4125    0.0000 O   0  0  0  0  0  0  0  0  0  0  0  0
    6.4599    1.1270    0.0000 C   0  0  0  0  0  0  0  0  0  0  0  0
    5.6349    1.1270    0.0000 C   0  0  0  0  0  0  0  0  0  0  0  0
    5.2224    0.4125    0.0000 C   0  0  0  0  0  0  0  0  0  0  0  0
    5.6349   -0.3020    0.0000 C   0  0  0  0  0  0  0  0  0  0  0  0
    6.4599   -0.3020    0.0000 C   0  0  0  0  0  0  0  0  0  0  0  0
    6.8724    0.4125    0.0000 N   0  0  0  0  0  0  0  0  0  0  0  0
    4.3974    0.4125    0.0000 C   0  0  0  0  0  0  0  0  0  0  0  0
    3.9849   -0.3020    0.0000 C   0  0  0  0  0  0  0  0  0  0  0  0
    3.1599   -0.3020    0.0000 C   0  0  0  0  0  0  0  0  0  0  0  0
    2.7474    0.4125    0.0000 C   0  0  0  0  0  0  0  0  0  0  0  0
    1.9224    0.4125    0.0000 N   0  0  0  0  0  0  0  0  0  0  0  0
    1.5099    1.1270    0.0000 C   0  0  0  0  0  0  0  0  0  0  0  0
    0.6849    1.1270    0.0000 C   0  0  0  0  0  0  0  0  0  0  0  0
    0.2724    1.8414    0.0000 C   0  0  0  0  0  0  0  0  0  0  0  0
    0.6849    2.5559    0.0000 C   0  0  0  0  0  0  0  0  0  0  0  0
    1.5099    2.5559    0.0000 N   0  0  0  0  0  0  0  0  0  0  0  0
    1.9224    1.8414    0.0000 C   0  0  0  0  0  0  0  0  0  0  0  0
    3.1599    1.1270    0.0000 C   0  0  0  0  0  0  0  0  0  0  0  0
    3.9849    1.1270    0.0000 C   0  0  0  0  0  0  0  0  0  0  0  0
    4.3974    1.8414    0.0000 N   0  0  0  0  0  0  0  0  0  0  0  0
    3.9849    2.5559    0.0000 C   0  0  0  0  0  0  0  0  0  0  0  0
    3.1599    2.5559    0.0000 O   0  0  0  0  0  0  0  0  0  0  0  0
  2  1  1  6  0  0  0
  2  3  1  0  0  0  0
  3  4  1  0  0  0  0
  4  5  1  0  0  0  0
  5  6  1  0  0  0  0
  6  7  1  6  0  0  0
  7  8  1  0  0  0  0
  8  9  1  0  0  0  0
  9 10  1  0  0  0  0
 10 11  1  0  0  0  0
 11 12  4  0  0  0  0
 12 13  1  0  0  0  0
 12 14  4  0  0  0  0
 14 15  4  0  0  0  0
 15 16  4  0  0  0  0
 16 17  1  0  0  0  0
 16 18  4  0  0  0  0
 11 18  4  0  0  0  0
 18 19  1  0  0  0  0
 10 20  2  0  0  0  0
 20 21  1  0  0  0  0
  7 21  1  0  0  0  0
 21 22  2  0  0  0  0
  6 23  1  0  0  0  0
 23 24  4  0  0  0  0
 24 25  4  0  0  0  0
 25 26  4  0  0  0  0
 26 27  4  0  0  0  0
 27 28  4  0  0  0  0
 23 28  4  0  0  0  0
 25 29  1  0  0  0  0
 29 30  4  0  0  0  0
 30 31  4  0  0  0  0
 31 32  4  0  0  0  0
 32 33  1  0  0  0  0
 33 34  1  0  0  0  0
 34 35  4  0  0  0  0
 35 36  4  0  0  0  0
 36 37  4  0  0  0  0
 37 38  4  0  0  0  0
 38 39  4  0  0  0  0
 34 39  4  0  0  0  0
 32 40  4  0  0  0  0
 40 41  4  0  0  0  0
 29 41  4  0  0  0  0
 41 42  1  0  0  0  0
 42 43  1  0  0  0  0
  2 43  1  0  0  0  0
 43 44  2  0  0  0  0
M  END
>  <CdId>
358841

>  <Mol Weight>
614.084

>  <Formula>
C34H30ClF2N5O2

>  <cmpd_chemblid>
CHEMBL4111663

>  <std_type>
Ki

>  <std_value>
0.47

>  <std_unit>
nM

>  <target_id>
CHEMBL2016

>  <target_name>
Coagulation factor IX

>  <organism>
Homo sapiens

>  <target_type>
SINGLE PROTEIN

$$$$

  Mrv0541 08052111042D          

 48 52  0  0  1  0            999 V2000
    3.9849    3.9849    0.0000 C   0  0  0  0  0  0  0  0  0  0  0  0
    4.3974    3.2704    0.0000 C   0  0  2  0  0  0  0  0  0  0  0  0
    5.2224    3.2704    0.0000 C   0  0  0  0  0  0  0  0  0  0  0  0
    5.6349    2.5559    0.0000 C   0  0  0  0  0  0  0  0  0  0  0  0
    6.4599    2.5559    0.0000 C   0  0  0  0  0  0  0  0  0  0  0  0
    6.8724    1.8414    0.0000 C   0  0  2  0  0  0  0  0  0  0  0  0
    7.6974    1.8414    0.0000 N   0  0  0  0  0  0  0  0  0  0  0  0
    8.1099    2.5559    0.0000 C   0  0  0  0  0  0  0  0  0  0  0  0
    8.9349    2.5559    0.0000 C   0  0  0  0  0  0  0  0  0  0  0  0
    9.3474    1.8414    0.0000 C   0  0  0  0  0  0  0  0  0  0  0  0
   10.1724    1.8414    0.0000 C   0  0  0  0  0  0  0  0  0  0  0  0
   10.5849    2.5559    0.0000 C   0  0  0  0  0  0  0  0  0  0  0  0
   10.1724    3.2704    0.0000 F   0  0  0  0  0  0  0  0  0  0  0  0
   11.4099    2.5559    0.0000 C   0  0  0  0  0  0  0  0  0  0  0  0
   11.8224    1.8414    0.0000 C   0  0  0  0  0  0  0  0  0  0  0  0
   11.4099    1.1270    0.0000 C   0  0  0  0  0  0  0  0  0  0  0  0
   11.8224    0.4125    0.0000 Cl  0  0  0  0  0  0  0  0  0  0  0  0
   10.5849    1.1270    0.0000 C   0  0  0  0  0  0  0  0  0  0  0  0
   10.1724    0.4125    0.0000 F   0  0  0  0  0  0  0  0  0  0  0  0
    8.9349    1.1270    0.0000 C   0  0  0  0  0  0  0  0  0  0  0  0
    8.1099    1.1270    0.0000 C   0  0  0  0  0  0  0  0  0  0  0  0
    7.6974    0.4125    0.0000 O   0  0  0  0  0  0  0  0  0  0  0  0
    6.4599    1.1270    0.0000 C   0  0  0  0  0  0  0  0  0  0  0  0
    5.6349    1.1270    0.0000 C   0  0  0  0  0  0  0  0  0  0  0  0
    5.2224    0.4125    0.0000 C   0  0  0  0  0  0  0  0  0  0  0  0
    5.6349   -0.3020    0.0000 C   0  0  0  0  0  0  0  0  0  0  0  0
    6.4599   -0.3020    0.0000 C   0  0  0  0  0  0  0  0  0  0  0  0
    6.8724    0.4125    0.0000 N   0  0  0  0  0  0  0  0  0  0  0  0
    4.3974    0.4125    0.0000 C   0  0  0  0  0  0  0  0  0  0  0  0
    3.9849   -0.3020    0.0000 C   0  0  0  0  0  0  0  0  0  0  0  0
    3.1599   -0.3020    0.0000 C   0  0  0  0  0  0  0  0  0  0  0  0
    2.7474    0.4125    0.0000 C   0  0  0  0  0  0  0  0  0  0  0  0
    1.9224    0.4125    0.0000 N   0  0  0  0  0  0  0  0  0  0  0  0
    1.5099   -0.3020    0.0000 C   0  0  0  0  0  0  0  0  0  0  0  0
    1.9224   -1.0164    0.0000 O   0  0  0  0  0  0  0  0  0  0  0  0
    0.6849   -0.3020    0.0000 C   0  0  0  0  0  0  0  0  0  0  0  0
    0.2724   -1.0164    0.0000 C   0  0  0  0  0  0  0  0  0  0  0  0
    0.6849   -1.7309    0.0000 O   0  0  0  0  0  0  0  0  0  0  0  0
   -0.5526   -1.0164    0.0000 O   0  0  0  0  0  0  0  0  0  0  0  0
   -0.9651   -1.7309    0.0000 C   0  0  0  0  0  0  0  0  0  0  0  0
   -1.3776   -2.4454    0.0000 C   0  0  0  0  0  0  0  0  0  0  0  0
   -1.6796   -1.3184    0.0000 C   0  0  0  0  0  0  0  0  0  0  0  0
   -0.2507   -2.1434    0.0000 C   0  0  0  0  0  0  0  0  0  0  0  0
    3.1599    1.1270    0.0000 C   0  0  0  0  0  0  0  0  0  0  0  0
    3.9849    1.1270    0.0000 C   0  0  0  0  0  0  0  0  0  0  0  0
    4.3974    1.8414    0.0000 N   0  0  0  0  0  0  0  0  0  0  0  0
    3.9849    2.5559    0.0000 C   0  0  0  0  0  0  0  0  0  0  0  0
    3.1599    2.5559    0.0000 O   0  0  0  0  0  0  0  0  0  0  0  0
  2  1  1  6  0  0  0
  2  3  1  0  0  0  0
  3  4  1  0  0  0  0
  4  5  1  0  0  0  0
  5  6  1  0  0  0  0
  6  7  1  6  0  0  0
  7  8  1  0  0  0  0
  8  9  1  0  0  0  0
  9 10  1  0  0  0  0
 10 11  1  0  0  0  0
 11 12  4  0  0  0  0
 12 13  1  0  0  0  0
 12 14  4  0  0  0  0
 14 15  4  0  0  0  0
 15 16  4  0  0  0  0
 16 17  1  0  0  0  0
 16 18  4  0  0  0  0
 11 18  4  0  0  0  0
 18 19  1  0  0  0  0
 10 20  2  0  0  0  0
 20 21  1  0  0  0  0
  7 21  1  0  0  0  0
 21 22  2  0  0  0  0
  6 23  1  0  0  0  0
 23 24  4  0  0  0  0
 24 25  4  0  0  0  0
 25 26  4  0  0  0  0
 26 27  4  0  0  0  0
 27 28  4  0  0  0  0
 23 28  4  0  0  0  0
 25 29  1  0  0  0  0
 29 30  4  0  0  0  0
 30 31  4  0  0  0  0
 31 32  4  0  0  0  0
 32 33  1  0  0  0  0
 33 34  1  0  0  0  0
 34 35  2  0  0  0  0
 34 36  1  0  0  0  0
 36 37  1  0  0  0  0
 37 38  2  0  0  0  0
 37 39  1  0  0  0  0
 39 40  1  0  0  0  0
 40 41  1  0  0  0  0
 40 42  1  0  0  0  0
 40 43  1  0  0  0  0
 32 44  4  0  0  0  0
 44 45  4  0  0  0  0
 29 45  4  0  0  0  0
 45 46  1  0  0  0  0
 46 47  1  0  0  0  0
  2 47  1  0  0  0  0
 47 48  2  0  0  0  0
M  END
>  <CdId>
358842

>  <Mol Weight>
679.153

>  <Formula>
C36H37ClF2N4O5

>  <cmpd_chemblid>
CHEMBL4113372

>  <std_type>
Ki

>  <std_value>
17.31

>  <std_unit>
nM

>  <target_id>
CHEMBL2016

>  <target_name>
Coagulation factor IX

>  <organism>
Homo sapiens

>  <target_type>
SINGLE PROTEIN

$$$$

  Mrv0541 08052111042D          

 33 37  0  0  0  0            999 V2000
   -1.0360   -7.4664    0.0000 C   0  0  0  0  0  0  0  0  0  0  0  0
   -0.3686   -6.9815    0.0000 C   0  0  0  0  0  0  0  0  0  0  0  0
   -0.3686   -6.1565    0.0000 C   0  0  0  0  0  0  0  0  0  0  0  0
    0.4161   -5.9016    0.0000 C   0  0  0  0  0  0  0  0  0  0  0  0
    0.6710   -5.1170    0.0000 C   0  0  0  0  0  0  0  0  0  0  0  0
    1.4780   -4.9454    0.0000 O   0  0  0  0  0  0  0  0  0  0  0  0
    0.1190   -4.5039    0.0000 N   0  0  0  0  0  0  0  0  0  0  0  0
    0.3739   -3.7192    0.0000 C   0  0  0  0  0  0  0  0  0  0  0  0
   -0.1781   -3.1062    0.0000 C   0  0  0  0  0  0  0  0  0  0  0  0
    0.0768   -2.3215    0.0000 C   0  0  0  0  0  0  0  0  0  0  0  0
    0.8838   -2.1500    0.0000 C   0  0  0  0  0  0  0  0  0  0  0  0
    1.1387   -1.3654    0.0000 N   0  0  0  0  0  0  0  0  0  0  0  0
    0.6538   -0.6979    0.0000 C   0  0  0  0  0  0  0  0  0  0  0  0
    1.1387   -0.0305    0.0000 N   0  0  0  0  0  0  0  0  0  0  0  0
    1.9233   -0.2854    0.0000 C   0  0  0  0  0  0  0  0  0  0  0  0
    2.6378    0.1271    0.0000 C   0  0  0  0  0  0  0  0  0  0  0  0
    3.3523   -0.2854    0.0000 C   0  0  0  0  0  0  0  0  0  0  0  0
    3.3523   -1.1104    0.0000 C   0  0  0  0  0  0  0  0  0  0  0  0
    2.6378   -1.5229    0.0000 C   0  0  0  0  0  0  0  0  0  0  0  0
    1.9233   -1.1104    0.0000 C   0  0  0  0  0  0  0  0  0  0  0  0
    1.4358   -2.7631    0.0000 C   0  0  0  0  0  0  0  0  0  0  0  0
    1.1809   -3.5477    0.0000 C   0  0  0  0  0  0  0  0  0  0  0  0
    0.9010   -6.5690    0.0000 N   0  0  0  0  0  0  0  0  0  0  0  0
    1.7260   -6.5690    0.0000 C   0  0  0  0  0  0  0  0  0  0  0  0
    2.1385   -5.8546    0.0000 C   0  0  0  0  0  0  0  0  0  0  0  0
    2.9635   -5.8546    0.0000 C   0  0  0  0  0  0  0  0  0  0  0  0
    3.3760   -6.5690    0.0000 C   0  0  0  0  0  0  0  0  0  0  0  0
    2.9635   -7.2835    0.0000 C   0  0  0  0  0  0  0  0  0  0  0  0
    3.3760   -7.9980    0.0000 C   0  0  0  0  0  0  0  0  0  0  0  0
    4.2010   -7.9980    0.0000 N   0  0  0  0  0  0  0  0  0  0  0  0
    2.9635   -8.7124    0.0000 N   0  0  0  0  0  0  0  0  0  0  0  0
    2.1385   -7.2835    0.0000 C   0  0  0  0  0  0  0  0  0  0  0  0
    0.4161   -7.2365    0.0000 N   0  0  0  0  0  0  0  0  0  0  0  0
  1  2  1  0  0  0  0
  2  3  4  0  0  0  0
  3  4  4  0  0  0  0
  4  5  1  0  0  0  0
  5  6  2  0  0  0  0
  5  7  1  0  0  0  0
  7  8  1  0  0  0  0
  8  9  4  0  0  0  0
  9 10  4  0  0  0  0
 10 11  4  0  0  0  0
 11 12  1  0  0  0  0
 12 13  4  0  0  0  0
 13 14  4  0  0  0  0
 14 15  4  0  0  0  0
 15 16  4  0  0  0  0
 16 17  4  0  0  0  0
 17 18  4  0  0  0  0
 18 19  4  0  0  0  0
 19 20  4  0  0  0  0
 15 20  4  0  0  0  0
 12 20  4  0  0  0  0
 11 21  4  0  0  0  0
 21 22  4  0  0  0  0
  8 22  4  0  0  0  0
  4 23  4  0  0  0  0
 23 24  1  0  0  0  0
 24 25  4  0  0  0  0
 25 26  4  0  0  0  0
 26 27  4  0  0  0  0
 27 28  4  0  0  0  0
 28 29  1  0  0  0  0
 29 30  2  0  0  0  0
 29 31  1  0  0  0  0
 28 32  4  0  0  0  0
 24 32  4  0  0  0  0
 23 33  4  0  0  0  0
  2 33  4  0  0  0  0
M  END
>  <CdId>
358843

>  <Mol Weight>
435.4805

>  <Formula>
C25H21N7O

>  <cmpd_chemblid>
CHEMBL366323

>  <std_type>
Ki

>  <std_value>
82.0

>  <std_unit>
nM

>  <target_id>
CHEMBL2016

>  <target_name>
Coagulation factor IX

>  <organism>
Homo sapiens

>  <target_type>
SINGLE PROTEIN

$$$$

  Mrv0541 08052111042D          

 37 39  0  0  0  0            999 V2000
   -4.2331   -1.3325    0.0000 C   0  0  0  0  0  0  0  0  0  0  0  0
   -3.4261   -1.1609    0.0000 C   0  0  0  0  0  0  0  0  0  0  0  0
   -3.1712   -0.3763    0.0000 C   0  0  0  0  0  0  0  0  0  0  0  0
   -2.3642   -0.2048    0.0000 C   0  0  0  0  0  0  0  0  0  0  0  0
   -1.8122   -0.8179    0.0000 C   0  0  0  0  0  0  0  0  0  0  0  0
   -1.0052   -0.6464    0.0000 N   0  0  0  0  0  0  0  0  0  0  0  0
   -0.7503    0.1383    0.0000 C   0  0  0  0  0  0  0  0  0  0  0  0
   -1.3023    0.7513    0.0000 O   0  0  0  0  0  0  0  0  0  0  0  0
    0.0567    0.3098    0.0000 C   0  0  0  0  0  0  0  0  0  0  0  0
    0.6087   -0.3033    0.0000 C   0  0  0  0  0  0  0  0  0  0  0  0
    0.3538   -1.0879    0.0000 C   0  0  0  0  0  0  0  0  0  0  0  0
    0.9058   -1.7010    0.0000 C   0  0  0  0  0  0  0  0  0  0  0  0
    0.6509   -2.4856    0.0000 C   0  0  0  0  0  0  0  0  0  0  0  0
   -0.1561   -2.6572    0.0000 C   0  0  0  0  0  0  0  0  0  0  0  0
   -0.7081   -2.0441    0.0000 C   0  0  0  0  0  0  0  0  0  0  0  0
   -0.4532   -1.2595    0.0000 C   0  0  0  0  0  0  0  0  0  0  0  0
    0.3116    1.0944    0.0000 C   0  0  0  0  0  0  0  0  0  0  0  0
   -0.1733    1.7618    0.0000 C   0  0  0  0  0  0  0  0  0  0  0  0
    0.3116    2.4293    0.0000 S   0  0  0  0  0  0  0  0  0  0  0  0
    1.0962    2.1743    0.0000 C   0  0  0  0  0  0  0  0  0  0  0  0
    1.8107    2.5868    0.0000 C   0  0  0  0  0  0  0  0  0  0  0  0
    2.5252    2.1743    0.0000 C   0  0  0  0  0  0  0  0  0  0  0  0
    2.5252    1.3493    0.0000 C   0  0  0  0  0  0  0  0  0  0  0  0
    3.2397    0.9368    0.0000 C   0  0  0  0  0  0  0  0  0  0  0  0
    3.9541    1.3493    0.0000 N   0  0  0  0  0  0  0  0  0  0  0  0
    3.2397    0.1118    0.0000 N   0  0  0  0  0  0  0  0  0  0  0  0
    1.8107    0.9368    0.0000 C   0  0  0  0  0  0  0  0  0  0  0  0
    1.0962    1.3493    0.0000 C   0  0  0  0  0  0  0  0  0  0  0  0
   -2.0671   -1.6025    0.0000 C   0  0  0  0  0  0  0  0  0  0  0  0
   -2.8741   -1.7740    0.0000 C   0  0  0  0  0  0  0  0  0  0  0  0
    6.0682   -0.8839    0.0000 O   0  0  0  0  0  0  0  0  0  0  0  0
    6.7827   -0.4714    0.0000 C   0  0  0  0  0  0  0  0  0  0  0  0
    7.4972   -0.8839    0.0000 O   0  0  0  0  0  0  0  0  0  0  0  0
    6.7827    0.3536    0.0000 C   0  0  0  0  0  0  0  0  0  0  0  0
    6.7827    1.1786    0.0000 F   0  0  0  0  0  0  0  0  0  0  0  0
    7.6077    0.3536    0.0000 F   0  0  0  0  0  0  0  0  0  0  0  0
    5.9577    0.3536    0.0000 F   0  0  0  0  0  0  0  0  0  0  0  0
  1  2  1  0  0  0  0
  2  3  1  0  0  0  0
  3  4  1  0  0  0  0
  4  5  1  0  0  0  0
  5  6  1  0  0  0  0
  6  7  1  0  0  0  0
  7  8  2  0  0  0  0
  7  9  1  0  0  0  0
  9 10  1  0  0  0  0
 10 11  1  0  0  0  0
 11 12  4  0  0  0  0
 12 13  4  0  0  0  0
 13 14  4  0  0  0  0
 14 15  4  0  0  0  0
 15 16  4  0  0  0  0
 11 16  4  0  0  0  0
  9 17  1  0  0  0  0
 17 18  4  0  0  0  0
 18 19  4  0  0  0  0
 19 20  4  0  0  0  0
 20 21  4  0  0  0  0
 21 22  4  0  0  0  0
 22 23  4  0  0  0  0
 23 24  1  0  0  0  0
 24 25  2  0  0  0  0
 24 26  1  0  0  0  0
 23 27  4  0  0  0  0
 27 28  4  0  0  0  0
 17 28  4  0  0  0  0
 20 28  4  0  0  0  0
  5 29  1  0  0  0  0
 29 30  1  0  0  0  0
  2 30  1  0  0  0  0
 31 32  2  0  0  0  0
 32 33  1  0  0  0  0
 32 34  1  0  0  0  0
 34 35  1  0  0  0  0
 34 36  1  0  0  0  0
 34 37  1  0  0  0  0
M  END
>  <CdId>
358844

>  <Mol Weight>
533.606

>  <Formula>
C27H30F3N3O3S

>  <cmpd_chemblid>
CHEMBL182939

>  <std_type>
Ki

>  <std_value>
580.0

>  <std_unit>
nM

>  <target_id>
CHEMBL2016

>  <target_name>
Coagulation factor IX

>  <organism>
Homo sapiens

>  <target_type>
SINGLE PROTEIN

$$$$

  Mrv0541 08052111042D          

 43 47  0  0  1  0            999 V2000
    8.6329   -2.2539    0.0000 C   0  0  0  0  0  0  0  0  0  0  0  0
    8.2204   -1.5395    0.0000 O   0  0  0  0  0  0  0  0  0  0  0  0
    7.3954   -1.5395    0.0000 C   0  0  0  0  0  0  0  0  0  0  0  0
    6.9829   -2.2539    0.0000 O   0  0  0  0  0  0  0  0  0  0  0  0
    6.9829   -0.8250    0.0000 N   0  0  0  0  0  0  0  0  0  0  0  0
    6.1579   -0.8250    0.0000 C   0  0  0  0  0  0  0  0  0  0  0  0
    5.7454   -0.1105    0.0000 C   0  0  0  0  0  0  0  0  0  0  0  0
    4.9204   -0.1105    0.0000 C   0  0  0  0  0  0  0  0  0  0  0  0
    4.5079   -0.8250    0.0000 C   0  0  0  0  0  0  0  0  0  0  0  0
    4.9204   -1.5395    0.0000 C   0  0  0  0  0  0  0  0  0  0  0  0
    5.7454   -1.5395    0.0000 C   0  0  0  0  0  0  0  0  0  0  0  0
    4.5079   -2.2539    0.0000 N   0  0  0  0  0  0  0  0  0  0  0  0
    4.9204   -2.9684    0.0000 C   0  0  0  0  0  0  0  0  0  0  0  0
    5.7454   -2.9684    0.0000 O   0  0  0  0  0  0  0  0  0  0  0  0
    4.5079   -3.6829    0.0000 C   0  0  2  0  0  0  0  0  0  0  0  0
    4.9204   -4.3974    0.0000 C   0  0  0  0  0  0  0  0  0  0  0  0
    3.6829   -3.6829    0.0000 C   0  0  0  0  0  0  0  0  0  0  0  0
    3.2704   -2.9684    0.0000 C   0  0  0  0  0  0  0  0  0  0  0  0
    2.4454   -2.9684    0.0000 C   0  0  0  0  0  0  0  0  0  0  0  0
    2.0329   -2.2539    0.0000 C   0  0  2  0  0  0  0  0  0  0  0  0
    1.2079   -2.2539    0.0000 N   0  0  0  0  0  0  0  0  0  0  0  0
    0.7954   -2.9684    0.0000 N   0  0  0  0  0  0  0  0  0  0  0  0
   -0.0296   -2.9684    0.0000 C   0  0  0  0  0  0  0  0  0  0  0  0
   -0.4421   -2.2539    0.0000 C   0  0  0  0  0  0  0  0  0  0  0  0
   -1.2671   -2.2539    0.0000 C   0  0  0  0  0  0  0  0  0  0  0  0
   -1.6796   -2.9684    0.0000 C   0  0  0  0  0  0  0  0  0  0  0  0
   -1.2671   -3.6829    0.0000 C   0  0  0  0  0  0  0  0  0  0  0  0
   -0.8546   -4.3974    0.0000 N   0  0  0  0  0  0  0  0  0  0  0  0
   -2.5046   -2.9684    0.0000 C   0  0  0  0  0  0  0  0  0  0  0  0
   -2.9171   -2.2539    0.0000 C   0  0  0  0  0  0  0  0  0  0  0  0
   -2.5046   -1.5395    0.0000 C   0  0  0  0  0  0  0  0  0  0  0  0
   -2.9171   -0.8250    0.0000 Cl  0  0  0  0  0  0  0  0  0  0  0  0
   -1.6796   -1.5395    0.0000 C   0  0  0  0  0  0  0  0  0  0  0  0
   -1.2671   -0.8250    0.0000 F   0  0  0  0  0  0  0  0  0  0  0  0
   -0.0296   -1.5395    0.0000 C   0  0  0  0  0  0  0  0  0  0  0  0
    0.7954   -1.5395    0.0000 C   0  0  0  0  0  0  0  0  0  0  0  0
    1.2079   -0.8250    0.0000 O   0  0  0  0  0  0  0  0  0  0  0  0
    2.4454   -1.5395    0.0000 C   0  0  0  0  0  0  0  0  0  0  0  0
    3.2704   -1.5395    0.0000 C   0  0  0  0  0  0  0  0  0  0  0  0
    3.6829   -0.8250    0.0000 C   0  0  0  0  0  0  0  0  0  0  0  0
    3.2704   -0.1105    0.0000 C   0  0  0  0  0  0  0  0  0  0  0  0
    2.4454   -0.1105    0.0000 C   0  0  0  0  0  0  0  0  0  0  0  0
    2.0329   -0.8250    0.0000 N   0  0  0  0  0  0  0  0  0  0  0  0
  1  2  1  0  0  0  0
  2  3  1  0  0  0  0
  3  4  2  0  0  0  0
  3  5  1  0  0  0  0
  5  6  1  0  0  0  0
  6  7  4  0  0  0  0
  7  8  4  0  0  0  0
  8  9  4  0  0  0  0
  9 10  4  0  0  0  0
 10 11  4  0  0  0  0
  6 11  4  0  0  0  0
 10 12  1  0  0  0  0
 12 13  1  0  0  0  0
 13 14  2  0  0  0  0
 13 15  1  0  0  0  0
 15 16  1  6  0  0  0
 15 17  1  0  0  0  0
 17 18  1  0  0  0  0
 18 19  1  0  0  0  0
 19 20  1  0  0  0  0
 20 21  1  6  0  0  0
 21 22  4  0  0  0  0
 22 23  4  0  0  0  0
 23 24  4  0  0  0  0
 24 25  1  0  0  0  0
 25 26  4  0  0  0  0
 26 27  1  0  0  0  0
 27 28  3  0  0  0  0
 26 29  4  0  0  0  0
 29 30  4  0  0  0  0
 30 31  4  0  0  0  0
 31 32  1  0  0  0  0
 31 33  4  0  0  0  0
 25 33  4  0  0  0  0
 33 34  1  0  0  0  0
 24 35  4  0  0  0  0
 35 36  4  0  0  0  0
 21 36  4  0  0  0  0
 36 37  2  0  0  0  0
 20 38  1  0  0  0  0
 38 39  4  0  0  0  0
 39 40  4  0  0  0  0
  9 40  1  0  0  0  0
 40 41  4  0  0  0  0
 41 42  4  0  0  0  0
 42 43  4  0  0  0  0
 38 43  4  0  0  0  0
M  END
>  <CdId>
358845

>  <Mol Weight>
601.027

>  <Formula>
C31H26ClFN6O4

>  <cmpd_chemblid>
CHEMBL4109580

>  <std_type>
Ki

>  <std_value>
0.55

>  <std_unit>
nM

>  <target_id>
CHEMBL2016

>  <target_name>
Coagulation factor IX

>  <organism>
Homo sapiens

>  <target_type>
SINGLE PROTEIN

$$$$

  Mrv0541 08052111042D          

 39 43  0  0  1  0            999 V2000
    3.9849    3.9849    0.0000 C   0  0  0  0  0  0  0  0  0  0  0  0
    4.3974    3.2704    0.0000 C   0  0  2  0  0  0  0  0  0  0  0  0
    5.2224    3.2704    0.0000 C   0  0  0  0  0  0  0  0  0  0  0  0
    5.6349    2.5559    0.0000 C   0  0  0  0  0  0  0  0  0  0  0  0
    6.4599    2.5559    0.0000 C   0  0  0  0  0  0  0  0  0  0  0  0
    6.8724    1.8414    0.0000 C   0  0  2  0  0  0  0  0  0  0  0  0
    7.6974    1.8414    0.0000 N   0  0  0  0  0  0  0  0  0  0  0  0
    8.1099    2.5559    0.0000 C   0  0  0  0  0  0  0  0  0  0  0  0
    8.9349    2.5559    0.0000 C   0  0  0  0  0  0  0  0  0  0  0  0
    9.3474    1.8414    0.0000 C   0  0  0  0  0  0  0  0  0  0  0  0
   10.1724    1.8414    0.0000 C   0  0  0  0  0  0  0  0  0  0  0  0
   10.5849    2.5559    0.0000 C   0  0  0  0  0  0  0  0  0  0  0  0
   10.1724    3.2704    0.0000 F   0  0  0  0  0  0  0  0  0  0  0  0
   11.4099    2.5559    0.0000 C   0  0  0  0  0  0  0  0  0  0  0  0
   11.8224    1.8414    0.0000 C   0  0  0  0  0  0  0  0  0  0  0  0
   11.4099    1.1270    0.0000 C   0  0  0  0  0  0  0  0  0  0  0  0
   11.8224    0.4125    0.0000 Cl  0  0  0  0  0  0  0  0  0  0  0  0
   10.5849    1.1270    0.0000 C   0  0  0  0  0  0  0  0  0  0  0  0
   10.1724    0.4125    0.0000 F   0  0  0  0  0  0  0  0  0  0  0  0
    8.9349    1.1270    0.0000 C   0  0  0  0  0  0  0  0  0  0  0  0
    8.1099    1.1270    0.0000 C   0  0  0  0  0  0  0  0  0  0  0  0
    7.6974    0.4125    0.0000 O   0  0  0  0  0  0  0  0  0  0  0  0
    6.4599    1.1270    0.0000 C   0  0  0  0  0  0  0  0  0  0  0  0
    5.6349    1.1270    0.0000 C   0  0  0  0  0  0  0  0  0  0  0  0
    5.2224    0.4125    0.0000 C   0  0  0  0  0  0  0  0  0  0  0  0
    5.6349   -0.3020    0.0000 C   0  0  0  0  0  0  0  0  0  0  0  0
    6.4599   -0.3020    0.0000 C   0  0  0  0  0  0  0  0  0  0  0  0
    6.8724    0.4125    0.0000 N   0  0  0  0  0  0  0  0  0  0  0  0
    4.3974    0.4125    0.0000 C   0  0  0  0  0  0  0  0  0  0  0  0
    3.9849   -0.3020    0.0000 C   0  0  0  0  0  0  0  0  0  0  0  0
    3.1599   -0.3020    0.0000 C   0  0  0  0  0  0  0  0  0  0  0  0
    2.7474    0.4125    0.0000 C   0  0  0  0  0  0  0  0  0  0  0  0
    1.9224    0.4125    0.0000 C   0  0  0  0  0  0  0  0  0  0  0  0
    1.5099   -0.3020    0.0000 O   0  0  0  0  0  0  0  0  0  0  0  0
    3.1599    1.1270    0.0000 C   0  0  0  0  0  0  0  0  0  0  0  0
    3.9849    1.1270    0.0000 C   0  0  0  0  0  0  0  0  0  0  0  0
    4.3974    1.8414    0.0000 N   0  0  0  0  0  0  0  0  0  0  0  0
    3.9849    2.5559    0.0000 C   0  0  0  0  0  0  0  0  0  0  0  0
    3.1599    2.5559    0.0000 O   0  0  0  0  0  0  0  0  0  0  0  0
  2  1  1  6  0  0  0
  2  3  1  0  0  0  0
  3  4  1  0  0  0  0
  4  5  1  0  0  0  0
  5  6  1  0  0  0  0
  6  7  1  6  0  0  0
  7  8  1  0  0  0  0
  8  9  1  0  0  0  0
  9 10  1  0  0  0  0
 10 11  1  0  0  0  0
 11 12  4  0  0  0  0
 12 13  1  0  0  0  0
 12 14  4  0  0  0  0
 14 15  4  0  0  0  0
 15 16  4  0  0  0  0
 16 17  1  0  0  0  0
 16 18  4  0  0  0  0
 11 18  4  0  0  0  0
 18 19  1  0  0  0  0
 10 20  2  0  0  0  0
 20 21  1  0  0  0  0
  7 21  1  0  0  0  0
 21 22  2  0  0  0  0
  6 23  1  0  0  0  0
 23 24  4  0  0  0  0
 24 25  4  0  0  0  0
 25 26  4  0  0  0  0
 26 27  4  0  0  0  0
 27 28  4  0  0  0  0
 23 28  4  0  0  0  0
 25 29  1  0  0  0  0
 29 30  4  0  0  0  0
 30 31  4  0  0  0  0
 31 32  4  0  0  0  0
 32 33  1  0  0  0  0
 33 34  1  0  0  0  0
 32 35  4  0  0  0  0
 35 36  4  0  0  0  0
 29 36  4  0  0  0  0
 36 37  1  0  0  0  0
 37 38  1  0  0  0  0
  2 38  1  0  0  0  0
 38 39  2  0  0  0  0
M  END
>  <CdId>
358847

>  <Mol Weight>
552.011

>  <Formula>
C30H28ClF2N3O3

>  <cmpd_chemblid>
CHEMBL4111665

>  <std_type>
Ki

>  <std_value>
17.51

>  <std_unit>
nM

>  <target_id>
CHEMBL2016

>  <target_name>
Coagulation factor IX

>  <organism>
Homo sapiens

>  <target_type>
SINGLE PROTEIN

$$$$

  Mrv0541 08052111042D          

 39 43  0  0  1  0            999 V2000
    3.9849    3.9849    0.0000 C   0  0  0  0  0  0  0  0  0  0  0  0
    4.3974    3.2704    0.0000 C   0  0  2  0  0  0  0  0  0  0  0  0
    5.2224    3.2704    0.0000 C   0  0  0  0  0  0  0  0  0  0  0  0
    5.6349    2.5559    0.0000 C   0  0  0  0  0  0  0  0  0  0  0  0
    6.4599    2.5559    0.0000 C   0  0  0  0  0  0  0  0  0  0  0  0
    6.8724    1.8414    0.0000 C   0  0  2  0  0  0  0  0  0  0  0  0
    7.6974    1.8414    0.0000 N   0  0  0  0  0  0  0  0  0  0  0  0
    8.1099    2.5559    0.0000 C   0  0  0  0  0  0  0  0  0  0  0  0
    8.9349    2.5559    0.0000 C   0  0  0  0  0  0  0  0  0  0  0  0
    9.3474    1.8414    0.0000 C   0  0  0  0  0  0  0  0  0  0  0  0
   10.1724    1.8414    0.0000 C   0  0  0  0  0  0  0  0  0  0  0  0
   10.5849    2.5559    0.0000 C   0  0  0  0  0  0  0  0  0  0  0  0
   10.1724    3.2704    0.0000 F   0  0  0  0  0  0  0  0  0  0  0  0
   11.4099    2.5559    0.0000 C   0  0  0  0  0  0  0  0  0  0  0  0
   11.8224    1.8414    0.0000 C   0  0  0  0  0  0  0  0  0  0  0  0
   11.4099    1.1270    0.0000 C   0  0  0  0  0  0  0  0  0  0  0  0
   11.8224    0.4125    0.0000 Cl  0  0  0  0  0  0  0  0  0  0  0  0
   10.5849    1.1270    0.0000 C   0  0  0  0  0  0  0  0  0  0  0  0
   10.1724    0.4125    0.0000 F   0  0  0  0  0  0  0  0  0  0  0  0
    8.9349    1.1270    0.0000 C   0  0  0  0  0  0  0  0  0  0  0  0
    8.1099    1.1270    0.0000 C   0  0  0  0  0  0  0  0  0  0  0  0
    7.6974    0.4125    0.0000 O   0  0  0  0  0  0  0  0  0  0  0  0
    6.4599    1.1270    0.0000 C   0  0  0  0  0  0  0  0  0  0  0  0
    5.6349    1.1270    0.0000 C   0  0  0  0  0  0  0  0  0  0  0  0
    5.2224    0.4125    0.0000 C   0  0  0  0  0  0  0  0  0  0  0  0
    5.6349   -0.3020    0.0000 C   0  0  0  0  0  0  0  0  0  0  0  0
    6.4599   -0.3020    0.0000 C   0  0  0  0  0  0  0  0  0  0  0  0
    6.8724    0.4125    0.0000 N   0  0  0  0  0  0  0  0  0  0  0  0
    4.3974    0.4125    0.0000 C   0  0  0  0  0  0  0  0  0  0  0  0
    3.9849   -0.3020    0.0000 C   0  0  0  0  0  0  0  0  0  0  0  0
    3.1599   -0.3020    0.0000 C   0  0  0  0  0  0  0  0  0  0  0  0
    2.7474   -1.0164    0.0000 Cl  0  0  0  0  0  0  0  0  0  0  0  0
    2.7474    0.4125    0.0000 C   0  0  0  0  0  0  0  0  0  0  0  0
    1.9224    0.4125    0.0000 O   0  0  0  0  0  0  0  0  0  0  0  0
    3.1599    1.1270    0.0000 C   0  0  0  0  0  0  0  0  0  0  0  0
    3.9849    1.1270    0.0000 C   0  0  0  0  0  0  0  0  0  0  0  0
    4.3974    1.8414    0.0000 N   0  0  0  0  0  0  0  0  0  0  0  0
    3.9849    2.5559    0.0000 C   0  0  0  0  0  0  0  0  0  0  0  0
    3.1599    2.5559    0.0000 O   0  0  0  0  0  0  0  0  0  0  0  0
  2  1  1  6  0  0  0
  2  3  1  0  0  0  0
  3  4  1  0  0  0  0
  4  5  1  0  0  0  0
  5  6  1  0  0  0  0
  6  7  1  6  0  0  0
  7  8  1  0  0  0  0
  8  9  1  0  0  0  0
  9 10  1  0  0  0  0
 10 11  1  0  0  0  0
 11 12  4  0  0  0  0
 12 13  1  0  0  0  0
 12 14  4  0  0  0  0
 14 15  4  0  0  0  0
 15 16  4  0  0  0  0
 16 17  1  0  0  0  0
 16 18  4  0  0  0  0
 11 18  4  0  0  0  0
 18 19  1  0  0  0  0
 10 20  2  0  0  0  0
 20 21  1  0  0  0  0
  7 21  1  0  0  0  0
 21 22  2  0  0  0  0
  6 23  1  0  0  0  0
 23 24  4  0  0  0  0
 24 25  4  0  0  0  0
 25 26  4  0  0  0  0
 26 27  4  0  0  0  0
 27 28  4  0  0  0  0
 23 28  4  0  0  0  0
 25 29  1  0  0  0  0
 29 30  4  0  0  0  0
 30 31  4  0  0  0  0
 31 32  1  0  0  0  0
 31 33  4  0  0  0  0
 33 34  1  0  0  0  0
 33 35  4  0  0  0  0
 35 36  4  0  0  0  0
 29 36  4  0  0  0  0
 36 37  1  0  0  0  0
 37 38  1  0  0  0  0
  2 38  1  0  0  0  0
 38 39  2  0  0  0  0
M  END
>  <CdId>
358848

>  <Mol Weight>
572.43

>  <Formula>
C29H25Cl2F2N3O3

>  <cmpd_chemblid>
CHEMBL4111147

>  <std_type>
Ki

>  <std_value>
15.53

>  <std_unit>
nM

>  <target_id>
CHEMBL2016

>  <target_name>
Coagulation factor IX

>  <organism>
Homo sapiens

>  <target_type>
SINGLE PROTEIN

$$$$

  Mrv0541 08052111042D          

 37 41  0  0  1  0            999 V2000
    1.4289   -2.4750    0.0000 N   0  0  0  0  0  0  0  0  0  0  0  0
    1.4289   -1.6500    0.0000 C   0  0  0  0  0  0  0  0  0  0  0  0
    0.7145   -1.2375    0.0000 N   0  0  0  0  0  0  0  0  0  0  0  0
    0.7145   -0.4125    0.0000 C   0  0  0  0  0  0  0  0  0  0  0  0
    1.4289    0.0000    0.0000 C   0  0  0  0  0  0  0  0  0  0  0  0
    2.1434   -0.4125    0.0000 C   0  0  0  0  0  0  0  0  0  0  0  0
    2.8579    0.0000    0.0000 C   0  0  0  0  0  0  0  0  0  0  0  0
    3.5724   -0.4125    0.0000 C   0  0  0  0  0  0  0  0  0  0  0  0
    4.2868   -0.0000    0.0000 C   0  0  0  0  0  0  0  0  0  0  0  0
    4.2868    0.8250    0.0000 C   0  0  2  0  0  0  0  0  0  0  0  0
    3.5724    1.2375    0.0000 C   0  0  0  0  0  0  0  0  0  0  0  0
    2.8579    0.8250    0.0000 O   0  0  0  0  0  0  0  0  0  0  0  0
    3.5724    2.0625    0.0000 O   0  0  0  0  0  0  0  0  0  0  0  0
    5.0013    1.2375    0.0000 N   0  0  0  0  0  0  0  0  0  0  0  0
    5.0875    2.0580    0.0000 C   0  0  0  0  0  0  0  0  0  0  0  0
    5.8945    2.2295    0.0000 C   0  0  0  0  0  0  0  0  0  0  0  0
    6.3070    1.5150    0.0000 C   0  0  2  0  0  0  0  0  0  0  0  0
    7.1275    1.4288    0.0000 N   0  0  0  0  0  0  0  0  0  0  0  0
    7.6124    2.0962    0.0000 S   0  0  0  0  0  0  0  0  0  0  0  0
    8.2798    1.6113    0.0000 O   0  0  0  0  0  0  0  0  0  0  0  0
    6.9450    2.5812    0.0000 O   0  0  0  0  0  0  0  0  0  0  0  0
    8.0973    2.7637    0.0000 C   0  0  0  0  0  0  0  0  0  0  0  0
    7.8424    3.5483    0.0000 C   0  0  0  0  0  0  0  0  0  0  0  0
    8.5098    4.0332    0.0000 N   0  0  0  0  0  0  0  0  0  0  0  0
    9.1773    3.5483    0.0000 C   0  0  0  0  0  0  0  0  0  0  0  0
    9.9619    3.8032    0.0000 N   0  0  0  0  0  0  0  0  0  0  0  0
   10.2168    4.5879    0.0000 C   0  0  0  0  0  0  0  0  0  0  0  0
   11.0418    4.5879    0.0000 C   0  0  0  0  0  0  0  0  0  0  0  0
   11.2968    3.8032    0.0000 C   0  0  0  0  0  0  0  0  0  0  0  0
   10.6293    3.3183    0.0000 C   0  0  0  0  0  0  0  0  0  0  0  0
    8.9223    2.7637    0.0000 S   0  0  0  0  0  0  0  0  0  0  0  0
    5.7550    0.9019    0.0000 C   0  0  0  0  0  0  0  0  0  0  0  0
    5.9265    0.0950    0.0000 O   0  0  0  0  0  0  0  0  0  0  0  0
    3.5724   -1.2375    0.0000 C   0  0  0  0  0  0  0  0  0  0  0  0
    4.2868   -1.6500    0.0000 F   0  0  0  0  0  0  0  0  0  0  0  0
    2.8579   -1.6500    0.0000 C   0  0  0  0  0  0  0  0  0  0  0  0
    2.1434   -1.2375    0.0000 C   0  0  0  0  0  0  0  0  0  0  0  0
  1  2  1  0  0  0  0
  2  3  4  0  0  0  0
  3  4  4  0  0  0  0
  4  5  4  0  0  0  0
  5  6  4  0  0  0  0
  6  7  4  0  0  0  0
  7  8  4  0  0  0  0
  8  9  1  0  0  0  0
  9 10  1  0  0  0  0
 10 11  1  0  0  0  0
 11 12  2  0  0  0  0
 11 13  1  0  0  0  0
 10 14  1  6  0  0  0
 14 15  1  0  0  0  0
 15 16  1  0  0  0  0
 16 17  1  0  0  0  0
 17 18  1  6  0  0  0
 18 19  1  0  0  0  0
 19 20  2  0  0  0  0
 19 21  2  0  0  0  0
 19 22  1  0  0  0  0
 22 23  4  0  0  0  0
 23 24  4  0  0  0  0
 24 25  4  0  0  0  0
 25 26  1  0  0  0  0
 26 27  1  0  0  0  0
 27 28  1  0  0  0  0
 28 29  1  0  0  0  0
 29 30  1  0  0  0  0
 26 30  1  0  0  0  0
 25 31  4  0  0  0  0
 22 31  4  0  0  0  0
 17 32  1  0  0  0  0
 14 32  1  0  0  0  0
 32 33  2  0  0  0  0
  8 34  4  0  0  0  0
 34 35  1  0  0  0  0
 34 36  4  0  0  0  0
 36 37  4  0  0  0  0
  2 37  4  0  0  0  0
  6 37  4  0  0  0  0
M  END
>  <CdId>
358850

>  <Mol Weight>
548.61

>  <Formula>
C23H25FN6O5S2

>  <cmpd_chemblid>
CHEMBL3958011

>  <std_type>
Ki

>  <std_value>
60.0

>  <std_unit>
nM

>  <target_id>
CHEMBL2016

>  <target_name>
Coagulation factor IX

>  <organism>
Homo sapiens

>  <target_type>
SINGLE PROTEIN

$$$$

  Mrv0541 08052111042D          

 39 44  0  0  1  0            999 V2000
    3.9849    3.9849    0.0000 C   0  0  0  0  0  0  0  0  0  0  0  0
    4.3974    3.2704    0.0000 C   0  0  2  0  0  0  0  0  0  0  0  0
    5.2224    3.2704    0.0000 C   0  0  0  0  0  0  0  0  0  0  0  0
    5.6349    2.5559    0.0000 C   0  0  0  0  0  0  0  0  0  0  0  0
    6.4599    2.5559    0.0000 C   0  0  0  0  0  0  0  0  0  0  0  0
    6.8724    1.8414    0.0000 C   0  0  2  0  0  0  0  0  0  0  0  0
    7.6974    1.8414    0.0000 N   0  0  0  0  0  0  0  0  0  0  0  0
    8.1099    2.5559    0.0000 C   0  0  0  0  0  0  0  0  0  0  0  0
    8.9349    2.5559    0.0000 C   0  0  0  0  0  0  0  0  0  0  0  0
    9.3474    1.8414    0.0000 C   0  0  0  0  0  0  0  0  0  0  0  0
   10.1724    1.8414    0.0000 C   0  0  0  0  0  0  0  0  0  0  0  0
   10.5849    2.5559    0.0000 C   0  0  0  0  0  0  0  0  0  0  0  0
   10.1724    3.2704    0.0000 C   0  0  0  0  0  0  0  0  0  0  0  0
    9.4579    3.6829    0.0000 C   0  0  0  0  0  0  0  0  0  0  0  0
   10.1724    4.0954    0.0000 C   0  0  0  0  0  0  0  0  0  0  0  0
   11.4099    2.5559    0.0000 C   0  0  0  0  0  0  0  0  0  0  0  0
   11.8224    1.8414    0.0000 C   0  0  0  0  0  0  0  0  0  0  0  0
   11.4099    1.1270    0.0000 C   0  0  0  0  0  0  0  0  0  0  0  0
   11.8224    0.4125    0.0000 Cl  0  0  0  0  0  0  0  0  0  0  0  0
   10.5849    1.1270    0.0000 C   0  0  0  0  0  0  0  0  0  0  0  0
   10.1724    0.4125    0.0000 F   0  0  0  0  0  0  0  0  0  0  0  0
    8.9349    1.1270    0.0000 C   0  0  0  0  0  0  0  0  0  0  0  0
    8.1099    1.1270    0.0000 C   0  0  0  0  0  0  0  0  0  0  0  0
    7.6974    0.4125    0.0000 O   0  0  0  0  0  0  0  0  0  0  0  0
    6.4599    1.1270    0.0000 C   0  0  0  0  0  0  0  0  0  0  0  0
    5.6349    1.1270    0.0000 C   0  0  0  0  0  0  0  0  0  0  0  0
    5.2224    0.4125    0.0000 C   0  0  0  0  0  0  0  0  0  0  0  0
    5.6349   -0.3020    0.0000 C   0  0  0  0  0  0  0  0  0  0  0  0
    6.4599   -0.3020    0.0000 C   0  0  0  0  0  0  0  0  0  0  0  0
    6.8724    0.4125    0.0000 N   0  0  0  0  0  0  0  0  0  0  0  0
    4.3974    0.4125    0.0000 C   0  0  0  0  0  0  0  0  0  0  0  0
    3.9849   -0.3020    0.0000 C   0  0  0  0  0  0  0  0  0  0  0  0
    3.1599   -0.3020    0.0000 C   0  0  0  0  0  0  0  0  0  0  0  0
    2.7474    0.4125    0.0000 C   0  0  0  0  0  0  0  0  0  0  0  0
    3.1599    1.1270    0.0000 C   0  0  0  0  0  0  0  0  0  0  0  0
    3.9849    1.1270    0.0000 C   0  0  0  0  0  0  0  0  0  0  0  0
    4.3974    1.8414    0.0000 N   0  0  0  0  0  0  0  0  0  0  0  0
    3.9849    2.5559    0.0000 C   0  0  0  0  0  0  0  0  0  0  0  0
    3.1599    2.5559    0.0000 O   0  0  0  0  0  0  0  0  0  0  0  0
  2  1  1  6  0  0  0
  2  3  1  0  0  0  0
  3  4  1  0  0  0  0
  4  5  1  0  0  0  0
  5  6  1  0  0  0  0
  6  7  1  6  0  0  0
  7  8  1  0  0  0  0
  8  9  1  0  0  0  0
  9 10  1  0  0  0  0
 10 11  1  0  0  0  0
 11 12  4  0  0  0  0
 12 13  1  0  0  0  0
 13 14  1  0  0  0  0
 14 15  1  0  0  0  0
 13 15  1  0  0  0  0
 12 16  4  0  0  0  0
 16 17  4  0  0  0  0
 17 18  4  0  0  0  0
 18 19  1  0  0  0  0
 18 20  4  0  0  0  0
 11 20  4  0  0  0  0
 20 21  1  0  0  0  0
 10 22  2  0  0  0  0
 22 23  1  0  0  0  0
  7 23  1  0  0  0  0
 23 24  2  0  0  0  0
  6 25  1  0  0  0  0
 25 26  4  0  0  0  0
 26 27  4  0  0  0  0
 27 28  4  0  0  0  0
 28 29  4  0  0  0  0
 29 30  4  0  0  0  0
 25 30  4  0  0  0  0
 27 31  1  0  0  0  0
 31 32  4  0  0  0  0
 32 33  4  0  0  0  0
 33 34  4  0  0  0  0
 34 35  4  0  0  0  0
 35 36  4  0  0  0  0
 31 36  4  0  0  0  0
 36 37  1  0  0  0  0
 37 38  1  0  0  0  0
  2 38  1  0  0  0  0
 38 39  2  0  0  0  0
M  END
>  <CdId>
358852

>  <Mol Weight>
544.059

>  <Formula>
C32H31ClFN3O2

>  <cmpd_chemblid>
CHEMBL4111484

>  <std_type>
Ki

>  <std_value>
45.61

>  <std_unit>
nM

>  <target_id>
CHEMBL2016

>  <target_name>
Coagulation factor IX

>  <organism>
Homo sapiens

>  <target_type>
SINGLE PROTEIN

$$$$

  Mrv0541 08052111042D          

 36 39  0  0  1  0            999 V2000
   -6.0858    4.6798    0.0000 C   0  0  0  0  0  0  0  0  0  0  0  0
   -5.2653    4.7660    0.0000 N   0  0  0  0  0  0  0  0  0  0  0  0
   -4.9297    5.5197    0.0000 C   0  0  0  0  0  0  0  0  0  0  0  0
   -4.7804    4.0986    0.0000 C   0  0  0  0  0  0  0  0  0  0  0  0
   -3.9599    4.1848    0.0000 C   0  0  0  0  0  0  0  0  0  0  0  0
   -3.4749    3.5174    0.0000 C   0  0  0  0  0  0  0  0  0  0  0  0
   -3.8105    2.7637    0.0000 C   0  0  0  0  0  0  0  0  0  0  0  0
   -3.3256    2.0962    0.0000 S   0  0  0  0  0  0  0  0  0  0  0  0
   -3.9930    1.6113    0.0000 O   0  0  0  0  0  0  0  0  0  0  0  0
   -2.6581    2.5812    0.0000 O   0  0  0  0  0  0  0  0  0  0  0  0
   -2.8407    1.4288    0.0000 N   0  0  0  0  0  0  0  0  0  0  0  0
   -2.0202    1.5150    0.0000 C   0  0  1  0  0  0  0  0  0  0  0  0
   -1.6077    2.2295    0.0000 C   0  0  0  0  0  0  0  0  0  0  0  0
   -0.8007    2.0580    0.0000 C   0  0  0  0  0  0  0  0  0  0  0  0
   -0.7145    1.2375    0.0000 N   0  0  0  0  0  0  0  0  0  0  0  0
    0.0000    0.8250    0.0000 C   0  0  2  0  0  0  0  0  0  0  0  0
    0.0000    0.0000    0.0000 C   0  0  0  0  0  0  0  0  0  0  0  0
    0.7145   -0.4125    0.0000 C   0  0  0  0  0  0  0  0  0  0  0  0
    1.4289    0.0000    0.0000 C   0  0  0  0  0  0  0  0  0  0  0  0
    2.1434   -0.4125    0.0000 C   0  0  0  0  0  0  0  0  0  0  0  0
    2.8579    0.0000    0.0000 C   0  0  0  0  0  0  0  0  0  0  0  0
    3.5724   -0.4125    0.0000 C   0  0  0  0  0  0  0  0  0  0  0  0
    3.5724   -1.2375    0.0000 N   0  0  0  0  0  0  0  0  0  0  0  0
    2.8579   -1.6500    0.0000 C   0  0  0  0  0  0  0  0  0  0  0  0
    2.8579   -2.4750    0.0000 N   0  0  0  0  0  0  0  0  0  0  0  0
    2.1434   -1.2375    0.0000 C   0  0  0  0  0  0  0  0  0  0  0  0
    1.4289   -1.6500    0.0000 C   0  0  0  0  0  0  0  0  0  0  0  0
    0.7145   -1.2375    0.0000 C   0  0  0  0  0  0  0  0  0  0  0  0
    0.0000   -1.6500    0.0000 Cl  0  0  0  0  0  0  0  0  0  0  0  0
    0.7145    1.2375    0.0000 C   0  0  0  0  0  0  0  0  0  0  0  0
    0.7145    2.0625    0.0000 O   0  0  0  0  0  0  0  0  0  0  0  0
    1.4289    0.8250    0.0000 O   0  0  0  0  0  0  0  0  0  0  0  0
   -1.4681    0.9019    0.0000 C   0  0  0  0  0  0  0  0  0  0  0  0
   -1.6397    0.0950    0.0000 O   0  0  0  0  0  0  0  0  0  0  0  0
   -4.6310    2.6774    0.0000 C   0  0  0  0  0  0  0  0  0  0  0  0
   -5.1159    3.3449    0.0000 N   0  0  0  0  0  0  0  0  0  0  0  0
  1  2  1  0  0  0  0
  2  3  1  0  0  0  0
  2  4  1  0  0  0  0
  4  5  4  0  0  0  0
  5  6  4  0  0  0  0
  6  7  4  0  0  0  0
  7  8  1  0  0  0  0
  8  9  2  0  0  0  0
  8 10  2  0  0  0  0
  8 11  1  0  0  0  0
 12 11  1  1  0  0  0
 12 13  1  0  0  0  0
 13 14  1  0  0  0  0
 14 15  1  0  0  0  0
 16 15  1  1  0  0  0
 16 17  1  0  0  0  0
 17 18  1  0  0  0  0
 18 19  4  0  0  0  0
 19 20  4  0  0  0  0
 20 21  4  0  0  0  0
 21 22  4  0  0  0  0
 22 23  4  0  0  0  0
 23 24  4  0  0  0  0
 24 25  1  0  0  0  0
 24 26  4  0  0  0  0
 20 26  4  0  0  0  0
 26 27  4  0  0  0  0
 27 28  4  0  0  0  0
 18 28  4  0  0  0  0
 28 29  1  0  0  0  0
 16 30  1  0  0  0  0
 30 31  2  0  0  0  0
 30 32  1  0  0  0  0
 15 33  1  0  0  0  0
 12 33  1  0  0  0  0
 33 34  2  0  0  0  0
  7 35  4  0  0  0  0
 35 36  4  0  0  0  0
  4 36  4  0  0  0  0
M  END
>  <CdId>
358853

>  <Mol Weight>
533.0

>  <Formula>
C23H25ClN6O5S

>  <cmpd_chemblid>
CHEMBL3985466

>  <std_type>
Ki

>  <std_value>
46.0

>  <std_unit>
nM

>  <target_id>
CHEMBL2016

>  <target_name>
Coagulation factor IX

>  <organism>
Homo sapiens

>  <target_type>
SINGLE PROTEIN

$$$$

  Mrv0541 08052111042D          

 42 46  0  0  1  0            999 V2000
    1.4289   -2.4750    0.0000 N   0  0  0  0  0  0  0  0  0  0  0  0
    1.4289   -1.6500    0.0000 C   0  0  0  0  0  0  0  0  0  0  0  0
    0.7145   -1.2375    0.0000 N   0  0  0  0  0  0  0  0  0  0  0  0
    0.7145   -0.4125    0.0000 C   0  0  0  0  0  0  0  0  0  0  0  0
    1.4289    0.0000    0.0000 C   0  0  0  0  0  0  0  0  0  0  0  0
    2.1434   -0.4125    0.0000 C   0  0  0  0  0  0  0  0  0  0  0  0
    2.8579    0.0000    0.0000 C   0  0  0  0  0  0  0  0  0  0  0  0
    3.5724   -0.4125    0.0000 C   0  0  0  0  0  0  0  0  0  0  0  0
    4.2868   -0.0000    0.0000 C   0  0  0  0  0  0  0  0  0  0  0  0
    4.2868    0.8250    0.0000 C   0  0  2  0  0  0  0  0  0  0  0  0
    3.5724    1.2375    0.0000 C   0  0  0  0  0  0  0  0  0  0  0  0
    2.8579    0.8250    0.0000 O   0  0  0  0  0  0  0  0  0  0  0  0
    3.5724    2.0625    0.0000 O   0  0  0  0  0  0  0  0  0  0  0  0
    5.0013    1.2375    0.0000 N   0  0  0  0  0  0  0  0  0  0  0  0
    5.0875    2.0580    0.0000 C   0  0  0  0  0  0  0  0  0  0  0  0
    5.8945    2.2295    0.0000 C   0  0  0  0  0  0  0  0  0  0  0  0
    6.3070    1.5150    0.0000 C   0  0  2  0  0  0  0  0  0  0  0  0
    7.1275    1.4288    0.0000 N   0  0  0  0  0  0  0  0  0  0  0  0
    7.6124    2.0962    0.0000 S   0  0  0  0  0  0  0  0  0  0  0  0
    8.2798    1.6113    0.0000 O   0  0  0  0  0  0  0  0  0  0  0  0
    6.9450    2.5812    0.0000 O   0  0  0  0  0  0  0  0  0  0  0  0
    8.0973    2.7637    0.0000 C   0  0  0  0  0  0  0  0  0  0  0  0
    7.8424    3.5483    0.0000 C   0  0  0  0  0  0  0  0  0  0  0  0
    8.5098    4.0332    0.0000 N   0  0  0  0  0  0  0  0  0  0  0  0
    9.1773    3.5483    0.0000 C   0  0  0  0  0  0  0  0  0  0  0  0
    9.9619    3.8032    0.0000 N   0  0  0  0  0  0  0  0  0  0  0  0
   10.2168    4.5879    0.0000 C   0  0  0  0  0  0  0  0  0  0  0  0
   11.0418    4.5879    0.0000 C   0  0  0  0  0  0  0  0  0  0  0  0
   11.2968    3.8032    0.0000 C   0  0  0  0  0  0  0  0  0  0  0  0
   12.0504    4.1388    0.0000 F   0  0  0  0  0  0  0  0  0  0  0  0
   11.7093    3.0888    0.0000 F   0  0  0  0  0  0  0  0  0  0  0  0
   10.6293    3.3183    0.0000 C   0  0  0  0  0  0  0  0  0  0  0  0
    8.9223    2.7637    0.0000 S   0  0  0  0  0  0  0  0  0  0  0  0
    5.7550    0.9019    0.0000 C   0  0  0  0  0  0  0  0  0  0  0  0
    5.9265    0.0950    0.0000 O   0  0  0  0  0  0  0  0  0  0  0  0
    3.5724   -1.2375    0.0000 C   0  0  0  0  0  0  0  0  0  0  0  0
    4.2868   -1.6500    0.0000 C   0  0  0  0  0  0  0  0  0  0  0  0
    5.0013   -2.0625    0.0000 F   0  0  0  0  0  0  0  0  0  0  0  0
    3.8743   -2.3645    0.0000 F   0  0  0  0  0  0  0  0  0  0  0  0
    4.6993   -0.9355    0.0000 F   0  0  0  0  0  0  0  0  0  0  0  0
    2.8579   -1.6500    0.0000 C   0  0  0  0  0  0  0  0  0  0  0  0
    2.1434   -1.2375    0.0000 C   0  0  0  0  0  0  0  0  0  0  0  0
  1  2  1  0  0  0  0
  2  3  4  0  0  0  0
  3  4  4  0  0  0  0
  4  5  4  0  0  0  0
  5  6  4  0  0  0  0
  6  7  4  0  0  0  0
  7  8  4  0  0  0  0
  8  9  1  0  0  0  0
  9 10  1  0  0  0  0
 10 11  1  0  0  0  0
 11 12  2  0  0  0  0
 11 13  1  0  0  0  0
 10 14  1  6  0  0  0
 14 15  1  0  0  0  0
 15 16  1  0  0  0  0
 16 17  1  0  0  0  0
 17 18  1  6  0  0  0
 18 19  1  0  0  0  0
 19 20  2  0  0  0  0
 19 21  2  0  0  0  0
 19 22  1  0  0  0  0
 22 23  4  0  0  0  0
 23 24  4  0  0  0  0
 24 25  4  0  0  0  0
 25 26  1  0  0  0  0
 26 27  1  0  0  0  0
 27 28  1  0  0  0  0
 28 29  1  0  0  0  0
 29 30  1  0  0  0  0
 29 31  1  0  0  0  0
 29 32  1  0  0  0  0
 26 32  1  0  0  0  0
 25 33  4  0  0  0  0
 22 33  4  0  0  0  0
 17 34  1  0  0  0  0
 14 34  1  0  0  0  0
 34 35  2  0  0  0  0
  8 36  4  0  0  0  0
 36 37  1  0  0  0  0
 37 38  1  0  0  0  0
 37 39  1  0  0  0  0
 37 40  1  0  0  0  0
 36 41  4  0  0  0  0
 41 42  4  0  0  0  0
  2 42  4  0  0  0  0
  6 42  4  0  0  0  0
M  END
>  <CdId>
358854

>  <Mol Weight>
634.599

>  <Formula>
C24H23F5N6O5S2

>  <cmpd_chemblid>
CHEMBL3948317

>  <std_type>
Ki

>  <std_value>
60.0

>  <std_unit>
nM

>  <target_id>
CHEMBL2016

>  <target_name>
Coagulation factor IX

>  <organism>
Homo sapiens

>  <target_type>
SINGLE PROTEIN

$$$$

  Mrv0541 08052111042D          

 29 32  0  0  0  0            999 V2000
   -0.5837   -1.4124    0.0000 N   0  0  0  0  0  0  0  0  0  0  0  0
   -0.1712   -0.6979    0.0000 C   0  0  0  0  0  0  0  0  0  0  0  0
   -0.5837    0.0165    0.0000 N   0  0  0  0  0  0  0  0  0  0  0  0
    0.6538   -0.6979    0.0000 C   0  0  0  0  0  0  0  0  0  0  0  0
    1.1387   -0.0305    0.0000 C   0  0  0  0  0  0  0  0  0  0  0  0
    1.9233   -0.2854    0.0000 C   0  0  0  0  0  0  0  0  0  0  0  0
    2.6378    0.1271    0.0000 C   0  0  0  0  0  0  0  0  0  0  0  0
    2.6378    0.9521    0.0000 O   0  0  0  0  0  0  0  0  0  0  0  0
    3.3523    1.3646    0.0000 C   0  0  0  0  0  0  0  0  0  0  0  0
    4.0668    0.9521    0.0000 C   0  0  0  0  0  0  0  0  0  0  0  0
    4.0668    0.1271    0.0000 O   0  0  0  0  0  0  0  0  0  0  0  0
    4.7812    1.3646    0.0000 N   0  0  0  0  0  0  0  0  0  0  0  0
    5.4957    0.9521    0.0000 C   0  0  0  0  0  0  0  0  0  0  0  0
    6.2102    1.3646    0.0000 C   0  0  0  0  0  0  0  0  0  0  0  0
    6.9246    0.9521    0.0000 C   0  0  0  0  0  0  0  0  0  0  0  0
    6.9246    0.1271    0.0000 C   0  0  0  0  0  0  0  0  0  0  0  0
    6.2102   -0.2854    0.0000 C   0  0  0  0  0  0  0  0  0  0  0  0
    5.4957    0.1271    0.0000 C   0  0  0  0  0  0  0  0  0  0  0  0
    3.3523    2.1896    0.0000 C   0  0  0  0  0  0  0  0  0  0  0  0
    2.6378    2.6021    0.0000 C   0  0  0  0  0  0  0  0  0  0  0  0
    2.6378    3.4271    0.0000 C   0  0  0  0  0  0  0  0  0  0  0  0
    3.3523    3.8396    0.0000 C   0  0  0  0  0  0  0  0  0  0  0  0
    4.0668    3.4271    0.0000 C   0  0  0  0  0  0  0  0  0  0  0  0
    4.0668    2.6021    0.0000 C   0  0  0  0  0  0  0  0  0  0  0  0
    3.3523   -0.2854    0.0000 C   0  0  0  0  0  0  0  0  0  0  0  0
    3.3523   -1.1104    0.0000 C   0  0  0  0  0  0  0  0  0  0  0  0
    2.6378   -1.5229    0.0000 C   0  0  0  0  0  0  0  0  0  0  0  0
    1.9233   -1.1104    0.0000 C   0  0  0  0  0  0  0  0  0  0  0  0
    1.1387   -1.3654    0.0000 S   0  0  0  0  0  0  0  0  0  0  0  0
  1  2  2  0  0  0  0
  2  3  1  0  0  0  0
  2  4  1  0  0  0  0
  4  5  4  0  0  0  0
  5  6  4  0  0  0  0
  6  7  4  0  0  0  0
  7  8  1  0  0  0  0
  8  9  1  0  0  0  0
  9 10  1  0  0  0  0
 10 11  2  0  0  0  0
 10 12  1  0  0  0  0
 12 13  1  0  0  0  0
 13 14  4  0  0  0  0
 14 15  4  0  0  0  0
 15 16  4  0  0  0  0
 16 17  4  0  0  0  0
 17 18  4  0  0  0  0
 13 18  4  0  0  0  0
  9 19  1  0  0  0  0
 19 20  4  0  0  0  0
 20 21  4  0  0  0  0
 21 22  4  0  0  0  0
 22 23  4  0  0  0  0
 23 24  4  0  0  0  0
 19 24  4  0  0  0  0
  7 25  4  0  0  0  0
 25 26  4  0  0  0  0
 26 27  4  0  0  0  0
 27 28  4  0  0  0  0
  6 28  4  0  0  0  0
 28 29  4  0  0  0  0
  4 29  4  0  0  0  0
M  END
>  <CdId>
358857

>  <Mol Weight>
401.481

>  <Formula>
C23H19N3O2S

>  <cmpd_chemblid>
CHEMBL603670

>  <std_type>
Ki

>  <std_value>
170.0

>  <std_unit>
nM

>  <target_id>
CHEMBL2016

>  <target_name>
Coagulation factor IX

>  <organism>
Homo sapiens

>  <target_type>
SINGLE PROTEIN

$$$$

  Mrv0541 08052111042D          

 37 41  0  0  1  0            999 V2000
   10.2968    5.3311    0.0000 C   0  0  0  0  0  0  0  0  0  0  0  0
    9.9613    4.5775    0.0000 C   0  0  0  0  0  0  0  0  0  0  0  0
   10.3738    3.8630    0.0000 N   0  0  0  0  0  0  0  0  0  0  0  0
    9.8217    3.2499    0.0000 C   0  0  0  0  0  0  0  0  0  0  0  0
    9.0681    3.5854    0.0000 N   0  0  0  0  0  0  0  0  0  0  0  0
    8.3536    3.1729    0.0000 C   0  0  0  0  0  0  0  0  0  0  0  0
    8.3536    2.3479    0.0000 C   0  0  0  0  0  0  0  0  0  0  0  0
    7.6391    1.9354    0.0000 C   0  0  0  0  0  0  0  0  0  0  0  0
    7.6391    1.1104    0.0000 Cl  0  0  0  0  0  0  0  0  0  0  0  0
    6.9246    2.3479    0.0000 C   0  0  0  0  0  0  0  0  0  0  0  0
    6.2102    1.9354    0.0000 C   0  0  0  0  0  0  0  0  0  0  0  0
    6.2102    1.1104    0.0000 O   0  0  0  0  0  0  0  0  0  0  0  0
    5.4957    2.3479    0.0000 N   0  0  0  0  0  0  0  0  0  0  0  0
    4.7812    1.9354    0.0000 C   0  0  0  0  0  0  0  0  0  0  0  0
    4.0668    2.3479    0.0000 C   0  0  1  0  0  0  0  0  0  0  0  0
    4.0668    3.1729    0.0000 C   0  0  0  0  0  0  0  0  0  0  0  0
    3.3523    3.5854    0.0000 C   0  0  0  0  0  0  0  0  0  0  0  0
    3.3523    4.4104    0.0000 C   0  0  0  0  0  0  0  0  0  0  0  0
    4.0668    4.8229    0.0000 C   0  0  0  0  0  0  0  0  0  0  0  0
    4.0668    5.6479    0.0000 O   0  0  0  0  0  0  0  0  0  0  0  0
    4.7812    4.4104    0.0000 C   0  0  0  0  0  0  0  0  0  0  0  0
    5.4957    4.8229    0.0000 F   0  0  0  0  0  0  0  0  0  0  0  0
    4.7812    3.5854    0.0000 C   0  0  0  0  0  0  0  0  0  0  0  0
    3.3523    1.9354    0.0000 C   0  0  0  0  0  0  0  0  0  0  0  0
    3.3523    1.1104    0.0000 C   0  0  0  0  0  0  0  0  0  0  0  0
    2.6378    0.6979    0.0000 C   0  0  0  0  0  0  0  0  0  0  0  0
    1.9233    1.1104    0.0000 C   0  0  0  0  0  0  0  0  0  0  0  0
    1.1387    0.8555    0.0000 N   0  0  0  0  0  0  0  0  0  0  0  0
    0.6538    1.5229    0.0000 C   0  0  0  0  0  0  0  0  0  0  0  0
   -0.1712    1.5229    0.0000 C   0  0  0  0  0  0  0  0  0  0  0  0
    1.1387    2.1904    0.0000 N   0  0  0  0  0  0  0  0  0  0  0  0
    1.9233    1.9354    0.0000 C   0  0  0  0  0  0  0  0  0  0  0  0
    2.6378    2.3479    0.0000 C   0  0  0  0  0  0  0  0  0  0  0  0
    6.9246    3.1729    0.0000 C   0  0  0  0  0  0  0  0  0  0  0  0
    6.2102    3.5854    0.0000 Cl  0  0  0  0  0  0  0  0  0  0  0  0
    7.6391    3.5854    0.0000 C   0  0  0  0  0  0  0  0  0  0  0  0
    9.1543    4.4059    0.0000 N   0  0  0  0  0  0  0  0  0  0  0  0
  1  2  1  0  0  0  0
  2  3  4  0  0  0  0
  3  4  4  0  0  0  0
  4  5  4  0  0  0  0
  5  6  1  0  0  0  0
  6  7  4  0  0  0  0
  7  8  4  0  0  0  0
  8  9  1  0  0  0  0
  8 10  4  0  0  0  0
 10 11  1  0  0  0  0
 11 12  2  0  0  0  0
 11 13  1  0  0  0  0
 13 14  1  0  0  0  0
 14 15  1  0  0  0  0
 15 16  1  0  0  0  0
 16 17  4  0  0  0  0
 17 18  4  0  0  0  0
 18 19  4  0  0  0  0
 19 20  1  0  0  0  0
 19 21  4  0  0  0  0
 21 22  1  0  0  0  0
 21 23  4  0  0  0  0
 16 23  4  0  0  0  0
 15 24  1  6  0  0  0
 24 25  4  0  0  0  0
 25 26  4  0  0  0  0
 26 27  4  0  0  0  0
 27 28  4  0  0  0  0
 28 29  4  0  0  0  0
 29 30  1  0  0  0  0
 29 31  4  0  0  0  0
 31 32  4  0  0  0  0
 27 32  4  0  0  0  0
 32 33  4  0  0  0  0
 24 33  4  0  0  0  0
 10 34  4  0  0  0  0
 34 35  1  0  0  0  0
 34 36  4  0  0  0  0
  6 36  4  0  0  0  0
  5 37  4  0  0  0  0
  2 37  4  0  0  0  0
M  STY  1   1 DAT
M  SAL   1  1  28
M  SDT   1 MRV_IMPLICIT_H                                        
M  SDD   1     0.0000    0.0000    DR    ALL  0       0  
M  SED   1 IMPL_H1
M  END
>  <CdId>
358858

>  <Mol Weight>
539.388

>  <Formula>
C26H21Cl2FN6O2

>  <cmpd_chemblid>
CHEMBL3774670

>  <std_type>
Ki

>  <std_value>
0.93

>  <std_unit>
nM

>  <target_id>
CHEMBL2016

>  <target_name>
Coagulation factor IX

>  <organism>
Homo sapiens

>  <target_type>
SINGLE PROTEIN

$$$$

  Mrv0541 08052111042D          

 39 43  0  0  1  0            999 V2000
    7.3954   -1.5395    0.0000 C   0  0  0  0  0  0  0  0  0  0  0  0
    6.9829   -0.8250    0.0000 O   0  0  0  0  0  0  0  0  0  0  0  0
    6.1579   -0.8250    0.0000 C   0  0  0  0  0  0  0  0  0  0  0  0
    5.7454   -0.1105    0.0000 C   0  0  0  0  0  0  0  0  0  0  0  0
    4.9204   -0.1105    0.0000 C   0  0  0  0  0  0  0  0  0  0  0  0
    4.5079   -0.8250    0.0000 C   0  0  0  0  0  0  0  0  0  0  0  0
    4.9204   -1.5395    0.0000 C   0  0  0  0  0  0  0  0  0  0  0  0
    5.7454   -1.5395    0.0000 C   0  0  0  0  0  0  0  0  0  0  0  0
    4.5079   -2.2539    0.0000 N   0  0  0  0  0  0  0  0  0  0  0  0
    4.9204   -2.9684    0.0000 C   0  0  0  0  0  0  0  0  0  0  0  0
    5.7454   -2.9684    0.0000 O   0  0  0  0  0  0  0  0  0  0  0  0
    4.5079   -3.6829    0.0000 C   0  0  2  0  0  0  0  0  0  0  0  0
    4.9204   -4.3974    0.0000 C   0  0  0  0  0  0  0  0  0  0  0  0
    3.6829   -3.6829    0.0000 C   0  0  0  0  0  0  0  0  0  0  0  0
    3.2704   -2.9684    0.0000 C   0  0  0  0  0  0  0  0  0  0  0  0
    2.4454   -2.9684    0.0000 C   0  0  0  0  0  0  0  0  0  0  0  0
    2.0329   -2.2539    0.0000 C   0  0  2  0  0  0  0  0  0  0  0  0
    1.2079   -2.2539    0.0000 N   0  0  0  0  0  0  0  0  0  0  0  0
    0.7954   -2.9684    0.0000 C   0  0  0  0  0  0  0  0  0  0  0  0
   -0.0296   -2.9684    0.0000 C   0  0  0  0  0  0  0  0  0  0  0  0
   -0.4421   -2.2539    0.0000 C   0  0  0  0  0  0  0  0  0  0  0  0
   -1.2671   -2.2539    0.0000 C   0  0  0  0  0  0  0  0  0  0  0  0
   -1.6796   -2.9684    0.0000 C   0  0  0  0  0  0  0  0  0  0  0  0
   -1.2671   -3.6829    0.0000 F   0  0  0  0  0  0  0  0  0  0  0  0
   -2.5046   -2.9684    0.0000 C   0  0  0  0  0  0  0  0  0  0  0  0
   -2.9171   -2.2539    0.0000 C   0  0  0  0  0  0  0  0  0  0  0  0
   -2.5046   -1.5395    0.0000 C   0  0  0  0  0  0  0  0  0  0  0  0
   -2.9171   -0.8250    0.0000 Cl  0  0  0  0  0  0  0  0  0  0  0  0
   -1.6796   -1.5395    0.0000 C   0  0  0  0  0  0  0  0  0  0  0  0
   -1.2671   -0.8250    0.0000 F   0  0  0  0  0  0  0  0  0  0  0  0
   -0.0296   -1.5395    0.0000 C   0  0  0  0  0  0  0  0  0  0  0  0
    0.7954   -1.5395    0.0000 C   0  0  0  0  0  0  0  0  0  0  0  0
    1.2079   -0.8250    0.0000 O   0  0  0  0  0  0  0  0  0  0  0  0
    2.4454   -1.5395    0.0000 C   0  0  0  0  0  0  0  0  0  0  0  0
    3.2704   -1.5395    0.0000 C   0  0  0  0  0  0  0  0  0  0  0  0
    3.6829   -0.8250    0.0000 C   0  0  0  0  0  0  0  0  0  0  0  0
    3.2704   -0.1105    0.0000 C   0  0  0  0  0  0  0  0  0  0  0  0
    2.4454   -0.1105    0.0000 C   0  0  0  0  0  0  0  0  0  0  0  0
    2.0329   -0.8250    0.0000 N   0  0  0  0  0  0  0  0  0  0  0  0
  1  2  1  0  0  0  0
  2  3  1  0  0  0  0
  3  4  4  0  0  0  0
  4  5  4  0  0  0  0
  5  6  4  0  0  0  0
  6  7  4  0  0  0  0
  7  8  4  0  0  0  0
  3  8  4  0  0  0  0
  7  9  1  0  0  0  0
  9 10  1  0  0  0  0
 10 11  2  0  0  0  0
 10 12  1  0  0  0  0
 12 13  1  6  0  0  0
 12 14  1  0  0  0  0
 14 15  1  0  0  0  0
 15 16  1  0  0  0  0
 16 17  1  0  0  0  0
 17 18  1  6  0  0  0
 18 19  1  0  0  0  0
 19 20  1  0  0  0  0
 20 21  1  0  0  0  0
 21 22  1  0  0  0  0
 22 23  4  0  0  0  0
 23 24  1  0  0  0  0
 23 25  4  0  0  0  0
 25 26  4  0  0  0  0
 26 27  4  0  0  0  0
 27 28  1  0  0  0  0
 27 29  4  0  0  0  0
 22 29  4  0  0  0  0
 29 30  1  0  0  0  0
 21 31  2  0  0  0  0
 31 32  1  0  0  0  0
 18 32  1  0  0  0  0
 32 33  2  0  0  0  0
 17 34  1  0  0  0  0
 34 35  4  0  0  0  0
 35 36  4  0  0  0  0
  6 36  1  0  0  0  0
 36 37  4  0  0  0  0
 37 38  4  0  0  0  0
 38 39  4  0  0  0  0
 34 39  4  0  0  0  0
M  END
>  <CdId>
358859

>  <Mol Weight>
552.011

>  <Formula>
C30H28ClF2N3O3

>  <cmpd_chemblid>
CHEMBL4113668

>  <std_type>
Ki

>  <std_value>
45.33

>  <std_unit>
nM

>  <target_id>
CHEMBL2016

>  <target_name>
Coagulation factor IX

>  <organism>
Homo sapiens

>  <target_type>
SINGLE PROTEIN

$$$$

  Mrv0541 08052111042D          

 33 36  0  0  0  0            999 V2000
    3.5724   -7.0125    0.0000 C   0  0  0  0  0  0  0  0  0  0  0  0
    2.8579   -6.6000    0.0000 C   0  0  0  0  0  0  0  0  0  0  0  0
    3.2704   -5.8855    0.0000 C   0  0  0  0  0  0  0  0  0  0  0  0
    2.4454   -7.3145    0.0000 C   0  0  0  0  0  0  0  0  0  0  0  0
    2.1434   -6.1875    0.0000 C   0  0  0  0  0  0  0  0  0  0  0  0
    1.4289   -6.6000    0.0000 C   0  0  0  0  0  0  0  0  0  0  0  0
    0.7145   -6.1875    0.0000 C   0  0  0  0  0  0  0  0  0  0  0  0
    0.7145   -5.3625    0.0000 C   0  0  0  0  0  0  0  0  0  0  0  0
    0.0000   -4.9500    0.0000 N   0  0  0  0  0  0  0  0  0  0  0  0
   -0.7145   -5.3625    0.0000 C   0  0  0  0  0  0  0  0  0  0  0  0
   -1.4289   -4.9500    0.0000 C   0  0  0  0  0  0  0  0  0  0  0  0
   -1.4289   -4.1250    0.0000 C   0  0  0  0  0  0  0  0  0  0  0  0
   -0.7145   -3.7125    0.0000 C   0  0  0  0  0  0  0  0  0  0  0  0
   -0.7145   -2.8875    0.0000 C   0  0  0  0  0  0  0  0  0  0  0  0
   -1.4289   -2.4750    0.0000 O   0  0  0  0  0  0  0  0  0  0  0  0
    0.0000   -2.4750    0.0000 C   0  0  0  0  0  0  0  0  0  0  0  0
    0.7145   -2.8875    0.0000 O   0  0  0  0  0  0  0  0  0  0  0  0
    0.0000   -1.6500    0.0000 N   0  0  0  0  0  0  0  0  0  0  0  0
    0.7145   -1.2375    0.0000 C   0  0  0  0  0  0  0  0  0  0  0  0
    0.7145   -0.4125    0.0000 C   0  0  0  0  0  0  0  0  0  0  0  0
    1.4289    0.0000    0.0000 C   0  0  0  0  0  0  0  0  0  0  0  0
    2.1434   -0.4125    0.0000 C   0  0  0  0  0  0  0  0  0  0  0  0
    2.8579    0.0000    0.0000 C   0  0  0  0  0  0  0  0  0  0  0  0
    2.8579    0.8250    0.0000 N   0  0  0  0  0  0  0  0  0  0  0  0
    3.5724   -0.4125    0.0000 N   0  0  0  0  0  0  0  0  0  0  0  0
    3.5724   -1.2375    0.0000 C   0  0  0  0  0  0  0  0  0  0  0  0
    2.8579   -1.6500    0.0000 C   0  0  0  0  0  0  0  0  0  0  0  0
    2.1434   -1.2375    0.0000 C   0  0  0  0  0  0  0  0  0  0  0  0
    1.4289   -1.6500    0.0000 C   0  0  0  0  0  0  0  0  0  0  0  0
    0.0000   -4.1250    0.0000 C   0  0  0  0  0  0  0  0  0  0  0  0
    0.7145   -3.7125    0.0000 O   0  0  0  0  0  0  0  0  0  0  0  0
    1.4289   -4.9500    0.0000 C   0  0  0  0  0  0  0  0  0  0  0  0
    2.1434   -5.3625    0.0000 C   0  0  0  0  0  0  0  0  0  0  0  0
  1  2  1  0  0  0  0
  2  3  1  0  0  0  0
  2  4  1  0  0  0  0
  2  5  1  0  0  0  0
  5  6  4  0  0  0  0
  6  7  4  0  0  0  0
  7  8  4  0  0  0  0
  8  9  1  0  0  0  0
  9 10  4  0  0  0  0
 10 11  4  0  0  0  0
 11 12  4  0  0  0  0
 12 13  4  0  0  0  0
 13 14  1  0  0  0  0
 14 15  1  0  0  0  0
 14 16  1  0  0  0  0
 16 17  2  0  0  0  0
 16 18  1  0  0  0  0
 18 19  1  0  0  0  0
 19 20  4  0  0  0  0
 20 21  4  0  0  0  0
 21 22  4  0  0  0  0
 22 23  4  0  0  0  0
 23 24  1  0  0  0  0
 23 25  4  0  0  0  0
 25 26  4  0  0  0  0
 26 27  4  0  0  0  0
 27 28  4  0  0  0  0
 22 28  4  0  0  0  0
 28 29  4  0  0  0  0
 19 29  4  0  0  0  0
 13 30  4  0  0  0  0
  9 30  4  0  0  0  0
 30 31  2  0  0  0  0
  8 32  4  0  0  0  0
 32 33  4  0  0  0  0
  5 33  4  0  0  0  0
M  END
>  <CdId>
358860

>  <Mol Weight>
442.5096

>  <Formula>
C26H26N4O3

>  <cmpd_chemblid>
CHEMBL3654416

>  <std_type>
Ki

>  <std_value>
27.0

>  <std_unit>
nM

>  <target_id>
CHEMBL2016

>  <target_name>
Coagulation factor IX

>  <organism>
Homo sapiens

>  <target_type>
SINGLE PROTEIN

$$$$

  Mrv0541 08052111042D          

 38 42  0  0  1  0            999 V2000
   -0.7145    0.4125    0.0000 N   0  0  0  0  0  0  0  0  0  0  0  0
    0.0000    0.0000    0.0000 C   0  0  0  0  0  0  0  0  0  0  0  0
    0.7145   -0.4125    0.0000 C   0  0  0  0  0  0  0  0  0  0  0  0
    1.4289    0.0000    0.0000 C   0  0  0  0  0  0  0  0  0  0  0  0
    2.1434   -0.4125    0.0000 C   0  0  0  0  0  0  0  0  0  0  0  0
    2.8579    0.0000    0.0000 C   0  0  0  0  0  0  0  0  0  0  0  0
    2.8579    0.8250    0.0000 N   0  0  0  0  0  0  0  0  0  0  0  0
    3.5724   -0.4125    0.0000 N   0  0  0  0  0  0  0  0  0  0  0  0
    3.5724   -1.2375    0.0000 C   0  0  0  0  0  0  0  0  0  0  0  0
    2.8579   -1.6500    0.0000 C   0  0  0  0  0  0  0  0  0  0  0  0
    2.1434   -1.2375    0.0000 C   0  0  0  0  0  0  0  0  0  0  0  0
    1.4289   -1.6500    0.0000 C   0  0  0  0  0  0  0  0  0  0  0  0
    0.7145   -1.2375    0.0000 C   0  0  0  0  0  0  0  0  0  0  0  0
    0.0000   -1.6500    0.0000 C   0  0  0  0  0  0  0  0  0  0  0  0
    0.0000   -2.4750    0.0000 C   0  0  2  0  0  0  0  0  0  0  0  0
    0.7145   -2.8875    0.0000 C   0  0  0  0  0  0  0  0  0  0  0  0
    1.4289   -2.4750    0.0000 O   0  0  0  0  0  0  0  0  0  0  0  0
    0.7145   -3.7125    0.0000 O   0  0  0  0  0  0  0  0  0  0  0  0
   -0.7145   -2.8875    0.0000 N   0  0  0  0  0  0  0  0  0  0  0  0
   -0.8007   -3.7080    0.0000 C   0  0  0  0  0  0  0  0  0  0  0  0
   -1.6077   -3.8795    0.0000 C   0  0  0  0  0  0  0  0  0  0  0  0
   -2.0202   -3.1650    0.0000 C   0  0  2  0  0  0  0  0  0  0  0  0
   -2.8407   -3.0788    0.0000 N   0  0  0  0  0  0  0  0  0  0  0  0
   -3.3256   -3.7462    0.0000 S   0  0  0  0  0  0  0  0  0  0  0  0
   -3.9930   -3.2613    0.0000 O   0  0  0  0  0  0  0  0  0  0  0  0
   -2.6581   -4.2312    0.0000 O   0  0  0  0  0  0  0  0  0  0  0  0
   -3.8105   -4.4137    0.0000 C   0  0  0  0  0  0  0  0  0  0  0  0
   -3.5556   -5.1983    0.0000 C   0  0  0  0  0  0  0  0  0  0  0  0
   -4.2230   -5.6832    0.0000 N   0  0  0  0  0  0  0  0  0  0  0  0
   -4.8904   -5.1983    0.0000 C   0  0  0  0  0  0  0  0  0  0  0  0
   -5.6751   -5.4532    0.0000 N   0  0  0  0  0  0  0  0  0  0  0  0
   -5.9300   -6.2379    0.0000 C   0  0  0  0  0  0  0  0  0  0  0  0
   -6.7550   -6.2379    0.0000 C   0  0  0  0  0  0  0  0  0  0  0  0
   -7.0099   -5.4532    0.0000 C   0  0  0  0  0  0  0  0  0  0  0  0
   -6.3425   -4.9683    0.0000 C   0  0  0  0  0  0  0  0  0  0  0  0
   -4.6355   -4.4137    0.0000 S   0  0  0  0  0  0  0  0  0  0  0  0
   -1.4681   -2.5519    0.0000 C   0  0  0  0  0  0  0  0  0  0  0  0
   -1.6397   -1.7450    0.0000 O   0  0  0  0  0  0  0  0  0  0  0  0
  1  2  3  0  0  0  0
  2  3  1  0  0  0  0
  3  4  4  0  0  0  0
  4  5  4  0  0  0  0
  5  6  4  0  0  0  0
  6  7  1  0  0  0  0
  6  8  4  0  0  0  0
  8  9  4  0  0  0  0
  9 10  4  0  0  0  0
 10 11  4  0  0  0  0
  5 11  4  0  0  0  0
 11 12  4  0  0  0  0
 12 13  4  0  0  0  0
  3 13  4  0  0  0  0
 13 14  1  0  0  0  0
 14 15  1  0  0  0  0
 15 16  1  0  0  0  0
 16 17  2  0  0  0  0
 16 18  1  0  0  0  0
 15 19  1  6  0  0  0
 19 20  1  0  0  0  0
 20 21  1  0  0  0  0
 21 22  1  0  0  0  0
 22 23  1  6  0  0  0
 23 24  1  0  0  0  0
 24 25  2  0  0  0  0
 24 26  2  0  0  0  0
 24 27  1  0  0  0  0
 27 28  4  0  0  0  0
 28 29  4  0  0  0  0
 29 30  4  0  0  0  0
 30 31  1  0  0  0  0
 31 32  1  0  0  0  0
 32 33  1  0  0  0  0
 33 34  1  0  0  0  0
 34 35  1  0  0  0  0
 31 35  1  0  0  0  0
 30 36  4  0  0  0  0
 27 36  4  0  0  0  0
 22 37  1  0  0  0  0
 19 37  1  0  0  0  0
 37 38  2  0  0  0  0
M  END
>  <CdId>
358861

>  <Mol Weight>
555.629

>  <Formula>
C24H25N7O5S2

>  <cmpd_chemblid>
CHEMBL3911676

>  <std_type>
Ki

>  <std_value>
40.0

>  <std_unit>
nM

>  <target_id>
CHEMBL2016

>  <target_name>
Coagulation factor IX

>  <organism>
Homo sapiens

>  <target_type>
SINGLE PROTEIN

$$$$

  Mrv0541 08052111042D          

 44 48  0  0  1  0            999 V2000
    3.9849    3.9849    0.0000 C   0  0  0  0  0  0  0  0  0  0  0  0
    4.3974    3.2704    0.0000 C   0  0  2  0  0  0  0  0  0  0  0  0
    5.2224    3.2704    0.0000 C   0  0  0  0  0  0  0  0  0  0  0  0
    5.6349    2.5559    0.0000 C   0  0  0  0  0  0  0  0  0  0  0  0
    6.4599    2.5559    0.0000 C   0  0  0  0  0  0  0  0  0  0  0  0
    6.8724    1.8414    0.0000 C   0  0  2  0  0  0  0  0  0  0  0  0
    7.6974    1.8414    0.0000 N   0  0  0  0  0  0  0  0  0  0  0  0
    8.1099    2.5559    0.0000 C   0  0  0  0  0  0  0  0  0  0  0  0
    8.9349    2.5559    0.0000 C   0  0  0  0  0  0  0  0  0  0  0  0
    9.3474    1.8414    0.0000 C   0  0  0  0  0  0  0  0  0  0  0  0
   10.1724    1.8414    0.0000 C   0  0  0  0  0  0  0  0  0  0  0  0
   10.5849    2.5559    0.0000 C   0  0  0  0  0  0  0  0  0  0  0  0
   10.1724    3.2704    0.0000 F   0  0  0  0  0  0  0  0  0  0  0  0
   11.4099    2.5559    0.0000 C   0  0  0  0  0  0  0  0  0  0  0  0
   11.8224    1.8414    0.0000 C   0  0  0  0  0  0  0  0  0  0  0  0
   11.4099    1.1270    0.0000 C   0  0  0  0  0  0  0  0  0  0  0  0
   11.8224    0.4125    0.0000 Cl  0  0  0  0  0  0  0  0  0  0  0  0
   10.5849    1.1270    0.0000 C   0  0  0  0  0  0  0  0  0  0  0  0
   10.1724    0.4125    0.0000 F   0  0  0  0  0  0  0  0  0  0  0  0
    8.9349    1.1270    0.0000 C   0  0  0  0  0  0  0  0  0  0  0  0
    8.1099    1.1270    0.0000 C   0  0  0  0  0  0  0  0  0  0  0  0
    7.6974    0.4125    0.0000 O   0  0  0  0  0  0  0  0  0  0  0  0
    6.4599    1.1270    0.0000 C   0  0  0  0  0  0  0  0  0  0  0  0
    5.6349    1.1270    0.0000 C   0  0  0  0  0  0  0  0  0  0  0  0
    5.2224    0.4125    0.0000 C   0  0  0  0  0  0  0  0  0  0  0  0
    5.6349   -0.3020    0.0000 C   0  0  0  0  0  0  0  0  0  0  0  0
    6.4599   -0.3020    0.0000 C   0  0  0  0  0  0  0  0  0  0  0  0
    6.8724    0.4125    0.0000 N   0  0  0  0  0  0  0  0  0  0  0  0
    4.3974    0.4125    0.0000 C   0  0  0  0  0  0  0  0  0  0  0  0
    3.9849   -0.3020    0.0000 C   0  0  0  0  0  0  0  0  0  0  0  0
    3.1599   -0.3020    0.0000 C   0  0  0  0  0  0  0  0  0  0  0  0
    2.7474    0.4125    0.0000 C   0  0  0  0  0  0  0  0  0  0  0  0
    1.9224    0.4125    0.0000 N   0  0  0  0  0  0  0  0  0  0  0  0
    1.5099   -0.3020    0.0000 C   0  0  0  0  0  0  0  0  0  0  0  0
    1.9224   -1.0164    0.0000 O   0  0  0  0  0  0  0  0  0  0  0  0
    0.6849   -0.3020    0.0000 O   0  0  0  0  0  0  0  0  0  0  0  0
    0.2724   -1.0164    0.0000 C   0  0  0  0  0  0  0  0  0  0  0  0
   -0.5526   -1.0164    0.0000 C   0  0  0  0  0  0  0  0  0  0  0  0
   -0.9651   -1.7309    0.0000 O   0  0  0  0  0  0  0  0  0  0  0  0
    3.1599    1.1270    0.0000 C   0  0  0  0  0  0  0  0  0  0  0  0
    3.9849    1.1270    0.0000 C   0  0  0  0  0  0  0  0  0  0  0  0
    4.3974    1.8414    0.0000 N   0  0  0  0  0  0  0  0  0  0  0  0
    3.9849    2.5559    0.0000 C   0  0  0  0  0  0  0  0  0  0  0  0
    3.1599    2.5559    0.0000 O   0  0  0  0  0  0  0  0  0  0  0  0
  2  1  1  6  0  0  0
  2  3  1  0  0  0  0
  3  4  1  0  0  0  0
  4  5  1  0  0  0  0
  5  6  1  0  0  0  0
  6  7  1  6  0  0  0
  7  8  1  0  0  0  0
  8  9  1  0  0  0  0
  9 10  1  0  0  0  0
 10 11  1  0  0  0  0
 11 12  4  0  0  0  0
 12 13  1  0  0  0  0
 12 14  4  0  0  0  0
 14 15  4  0  0  0  0
 15 16  4  0  0  0  0
 16 17  1  0  0  0  0
 16 18  4  0  0  0  0
 11 18  4  0  0  0  0
 18 19  1  0  0  0  0
 10 20  2  0  0  0  0
 20 21  1  0  0  0  0
  7 21  1  0  0  0  0
 21 22  2  0  0  0  0
  6 23  1  0  0  0  0
 23 24  4  0  0  0  0
 24 25  4  0  0  0  0
 25 26  4  0  0  0  0
 26 27  4  0  0  0  0
 27 28  4  0  0  0  0
 23 28  4  0  0  0  0
 25 29  1  0  0  0  0
 29 30  4  0  0  0  0
 30 31  4  0  0  0  0
 31 32  4  0  0  0  0
 32 33  1  0  0  0  0
 33 34  1  0  0  0  0
 34 35  2  0  0  0  0
 34 36  1  0  0  0  0
 36 37  1  0  0  0  0
 37 38  1  0  0  0  0
 38 39  1  0  0  0  0
 32 40  4  0  0  0  0
 40 41  4  0  0  0  0
 29 41  4  0  0  0  0
 41 42  1  0  0  0  0
 42 43  1  0  0  0  0
  2 43  1  0  0  0  0
 43 44  2  0  0  0  0
M  END
>  <CdId>
358863

>  <Mol Weight>
625.062

>  <Formula>
C32H31ClF2N4O5

>  <cmpd_chemblid>
CHEMBL4110983

>  <std_type>
Ki

>  <std_value>
0.08

>  <std_unit>
nM

>  <target_id>
CHEMBL2016

>  <target_name>
Coagulation factor IX

>  <organism>
Homo sapiens

>  <target_type>
SINGLE PROTEIN

$$$$

  Mrv0541 08052111042D          

 35 39  0  0  1  0            999 V2000
    2.7845    0.6979    0.0000 C   0  0  0  0  0  0  0  0  0  0  0  0
    2.0701    1.1104    0.0000 C   0  0  0  0  0  0  0  0  0  0  0  0
    1.3556    0.6979    0.0000 C   0  0  0  0  0  0  0  0  0  0  0  0
    0.6411    1.1104    0.0000 C   0  0  0  0  0  0  0  0  0  0  0  0
   -0.1435    0.8555    0.0000 N   0  0  0  0  0  0  0  0  0  0  0  0
   -0.6284    1.5229    0.0000 C   0  0  0  0  0  0  0  0  0  0  0  0
   -1.4534    1.5229    0.0000 C   0  0  1  0  0  0  0  0  0  0  0  0
   -1.8659    0.8085    0.0000 C   0  0  0  0  0  0  0  0  0  0  0  0
   -2.6909    0.8085    0.0000 N   0  0  0  0  0  0  0  0  0  0  0  0
   -3.1034    0.0940    0.0000 C   0  0  0  0  0  0  0  0  0  0  0  0
   -2.6909   -0.6205    0.0000 O   0  0  0  0  0  0  0  0  0  0  0  0
   -3.9284    0.0940    0.0000 C   0  0  0  0  0  0  0  0  0  0  0  0
   -4.3409   -0.6205    0.0000 C   0  0  0  0  0  0  0  0  0  0  0  0
   -3.9284   -1.3349    0.0000 C   0  0  0  0  0  0  0  0  0  0  0  0
   -5.1659   -0.6205    0.0000 C   0  0  0  0  0  0  0  0  0  0  0  0
   -5.5784    0.0940    0.0000 C   0  0  0  0  0  0  0  0  0  0  0  0
   -6.4034    0.0940    0.0000 N   0  0  0  0  0  0  0  0  0  0  0  0
   -6.8884   -0.5734    0.0000 C   0  0  0  0  0  0  0  0  0  0  0  0
   -7.6730   -0.3185    0.0000 N   0  0  0  0  0  0  0  0  0  0  0  0
   -7.6730    0.5065    0.0000 N   0  0  0  0  0  0  0  0  0  0  0  0
   -6.8884    0.7614    0.0000 C   0  0  0  0  0  0  0  0  0  0  0  0
   -5.1659    0.8085    0.0000 C   0  0  0  0  0  0  0  0  0  0  0  0
   -4.3409    0.8085    0.0000 C   0  0  0  0  0  0  0  0  0  0  0  0
   -3.9284    1.5229    0.0000 Cl  0  0  0  0  0  0  0  0  0  0  0  0
   -1.8659    2.2374    0.0000 C   0  0  0  0  0  0  0  0  0  0  0  0
   -2.6909    2.2374    0.0000 C   0  0  0  0  0  0  0  0  0  0  0  0
   -3.1034    2.9519    0.0000 C   0  0  0  0  0  0  0  0  0  0  0  0
   -2.6909    3.6664    0.0000 C   0  0  0  0  0  0  0  0  0  0  0  0
   -1.8659    3.6664    0.0000 C   0  0  0  0  0  0  0  0  0  0  0  0
   -1.4534    2.9519    0.0000 C   0  0  0  0  0  0  0  0  0  0  0  0
   -0.1435    2.1904    0.0000 N   0  0  0  0  0  0  0  0  0  0  0  0
    0.6411    1.9354    0.0000 C   0  0  0  0  0  0  0  0  0  0  0  0
    1.3556    2.3479    0.0000 C   0  0  0  0  0  0  0  0  0  0  0  0
    2.0701    1.9354    0.0000 C   0  0  0  0  0  0  0  0  0  0  0  0
    2.7845    2.3479    0.0000 C   0  0  0  0  0  0  0  0  0  0  0  0
  1  2  1  0  0  0  0
  2  3  4  0  0  0  0
  3  4  4  0  0  0  0
  4  5  4  0  0  0  0
  5  6  4  0  0  0  0
  6  7  1  0  0  0  0
  7  8  1  0  0  0  0
  8  9  1  0  0  0  0
  9 10  1  0  0  0  0
 10 11  2  0  0  0  0
 10 12  1  0  0  0  0
 12 13  4  0  0  0  0
 13 14  1  0  0  0  0
 13 15  4  0  0  0  0
 15 16  4  0  0  0  0
 16 17  1  0  0  0  0
 17 18  4  0  0  0  0
 18 19  4  0  0  0  0
 19 20  4  0  0  0  0
 20 21  4  0  0  0  0
 17 21  4  0  0  0  0
 16 22  4  0  0  0  0
 22 23  4  0  0  0  0
 12 23  4  0  0  0  0
 23 24  1  0  0  0  0
  7 25  1  1  0  0  0
 25 26  4  0  0  0  0
 26 27  4  0  0  0  0
 27 28  4  0  0  0  0
 28 29  4  0  0  0  0
 29 30  4  0  0  0  0
 25 30  4  0  0  0  0
  6 31  4  0  0  0  0
 31 32  4  0  0  0  0
  4 32  4  0  0  0  0
 32 33  4  0  0  0  0
 33 34  4  0  0  0  0
  2 34  4  0  0  0  0
 34 35  1  0  0  0  0
M  STY  1   1 DAT
M  SAL   1  1  31
M  SDT   1 MRV_IMPLICIT_H                                        
M  SDD   1     0.0000    0.0000    DR    ALL  0       0  
M  SED   1 IMPL_H1
M  END
>  <CdId>
358864

>  <Mol Weight>
484.98

>  <Formula>
C27H25ClN6O

>  <cmpd_chemblid>
CHEMBL3627866

>  <std_type>
Ki

>  <std_value>
8.0

>  <std_unit>
nM

>  <target_id>
CHEMBL2016

>  <target_name>
Coagulation factor IX

>  <organism>
Homo sapiens

>  <target_type>
SINGLE PROTEIN

$$$$

  Mrv0541 08052111042D          

 44 48  0  0  1  0            999 V2000
    1.4289    2.4750    0.0000 C   0  0  0  0  0  0  0  0  0  0  0  0
    0.7145    2.0625    0.0000 O   0  0  0  0  0  0  0  0  0  0  0  0
    0.7145    1.2375    0.0000 C   0  0  0  0  0  0  0  0  0  0  0  0
    1.4289    0.8250    0.0000 O   0  0  0  0  0  0  0  0  0  0  0  0
    0.0000    0.8250    0.0000 C   0  0  1  0  0  0  0  0  0  0  0  0
    0.0000    0.0000    0.0000 C   0  0  0  0  0  0  0  0  0  0  0  0
    0.7145   -0.4125    0.0000 C   0  0  0  0  0  0  0  0  0  0  0  0
    1.4289    0.0000    0.0000 C   0  0  0  0  0  0  0  0  0  0  0  0
    2.1434   -0.4125    0.0000 C   0  0  0  0  0  0  0  0  0  0  0  0
    2.8579    0.0000    0.0000 C   0  0  0  0  0  0  0  0  0  0  0  0
    3.5724   -0.4125    0.0000 C   0  0  0  0  0  0  0  0  0  0  0  0
    3.5724   -1.2375    0.0000 N   0  0  0  0  0  0  0  0  0  0  0  0
    2.8579   -1.6500    0.0000 C   0  0  0  0  0  0  0  0  0  0  0  0
    2.8579   -2.4750    0.0000 N   0  0  0  0  0  0  0  0  0  0  0  0
    2.1434   -1.2375    0.0000 C   0  0  0  0  0  0  0  0  0  0  0  0
    1.4289   -1.6500    0.0000 C   0  0  0  0  0  0  0  0  0  0  0  0
    0.7145   -1.2375    0.0000 C   0  0  0  0  0  0  0  0  0  0  0  0
    0.0000   -1.6500    0.0000 O   0  0  0  0  0  0  0  0  0  0  0  0
   -0.7145   -1.2375    0.0000 C   0  0  0  0  0  0  0  0  0  0  0  0
   -0.3020   -0.5230    0.0000 F   0  0  0  0  0  0  0  0  0  0  0  0
   -1.1270   -1.9520    0.0000 F   0  0  0  0  0  0  0  0  0  0  0  0
   -1.4289   -0.8250    0.0000 F   0  0  0  0  0  0  0  0  0  0  0  0
   -0.7145    1.2375    0.0000 N   0  0  0  0  0  0  0  0  0  0  0  0
   -1.4681    0.9019    0.0000 C   0  0  0  0  0  0  0  0  0  0  0  0
   -2.0202    1.5150    0.0000 C   0  0  0  0  0  0  0  0  0  0  0  0
   -1.6077    2.2295    0.0000 C   0  0  2  0  0  0  0  0  0  0  0  0
   -1.9432    2.9832    0.0000 N   0  0  0  0  0  0  0  0  0  0  0  0
   -2.7637    3.0694    0.0000 S   0  0  0  0  0  0  0  0  0  0  0  0
   -2.6775    3.8899    0.0000 O   0  0  0  0  0  0  0  0  0  0  0  0
   -2.8500    2.2489    0.0000 O   0  0  0  0  0  0  0  0  0  0  0  0
   -3.5842    3.1557    0.0000 C   0  0  0  0  0  0  0  0  0  0  0  0
   -4.1362    2.5426    0.0000 C   0  0  0  0  0  0  0  0  0  0  0  0
   -4.8899    2.8781    0.0000 N   0  0  0  0  0  0  0  0  0  0  0  0
   -4.8037    3.6986    0.0000 C   0  0  0  0  0  0  0  0  0  0  0  0
   -5.4168    4.2506    0.0000 N   0  0  0  0  0  0  0  0  0  0  0  0
   -6.2237    4.0791    0.0000 C   0  0  0  0  0  0  0  0  0  0  0  0
   -6.6362    4.7936    0.0000 C   0  0  0  0  0  0  0  0  0  0  0  0
   -6.0842    5.4067    0.0000 C   0  0  0  0  0  0  0  0  0  0  0  0
   -6.7516    5.8916    0.0000 F   0  0  0  0  0  0  0  0  0  0  0  0
   -5.6717    6.1211    0.0000 F   0  0  0  0  0  0  0  0  0  0  0  0
   -5.3305    5.0711    0.0000 C   0  0  0  0  0  0  0  0  0  0  0  0
   -3.9967    3.8701    0.0000 S   0  0  0  0  0  0  0  0  0  0  0  0
   -0.8007    2.0580    0.0000 C   0  0  0  0  0  0  0  0  0  0  0  0
   -0.1876    2.6100    0.0000 O   0  0  0  0  0  0  0  0  0  0  0  0
  1  2  1  0  0  0  0
  2  3  1  0  0  0  0
  3  4  2  0  0  0  0
  3  5  1  0  0  0  0
  5  6  1  0  0  0  0
  6  7  1  0  0  0  0
  7  8  4  0  0  0  0
  8  9  4  0  0  0  0
  9 10  4  0  0  0  0
 10 11  4  0  0  0  0
 11 12  4  0  0  0  0
 12 13  4  0  0  0  0
 13 14  1  0  0  0  0
 13 15  4  0  0  0  0
  9 15  4  0  0  0  0
 15 16  4  0  0  0  0
 16 17  4  0  0  0  0
  7 17  4  0  0  0  0
 17 18  1  0  0  0  0
 18 19  1  0  0  0  0
 19 20  1  0  0  0  0
 19 21  1  0  0  0  0
 19 22  1  0  0  0  0
  5 23  1  1  0  0  0
 23 24  1  0  0  0  0
 24 25  1  0  0  0  0
 25 26  1  0  0  0  0
 26 27  1  6  0  0  0
 27 28  1  0  0  0  0
 28 29  2  0  0  0  0
 28 30  2  0  0  0  0
 28 31  1  0  0  0  0
 31 32  4  0  0  0  0
 32 33  4  0  0  0  0
 33 34  4  0  0  0  0
 34 35  1  0  0  0  0
 35 36  1  0  0  0  0
 36 37  1  0  0  0  0
 37 38  1  0  0  0  0
 38 39  1  0  0  0  0
 38 40  1  0  0  0  0
 38 41  1  0  0  0  0
 35 41  1  0  0  0  0
 34 42  4  0  0  0  0
 31 42  4  0  0  0  0
 26 43  1  0  0  0  0
 23 43  1  0  0  0  0
 43 44  2  0  0  0  0
M  END
>  <CdId>
358865

>  <Mol Weight>
664.625

>  <Formula>
C25H25F5N6O6S2

>  <cmpd_chemblid>
CHEMBL3892100

>  <std_type>
Ki

>  <std_value>
275.0

>  <std_unit>
nM

>  <target_id>
CHEMBL2016

>  <target_name>
Coagulation factor IX

>  <organism>
Homo sapiens

>  <target_type>
SINGLE PROTEIN

$$$$

  Mrv0541 08052111042D          

 40 44  0  0  1  0            999 V2000
    8.6329   -2.2539    0.0000 C   0  0  0  0  0  0  0  0  0  0  0  0
    8.2204   -1.5395    0.0000 O   0  0  0  0  0  0  0  0  0  0  0  0
    7.3954   -1.5395    0.0000 C   0  0  0  0  0  0  0  0  0  0  0  0
    6.9829   -2.2539    0.0000 O   0  0  0  0  0  0  0  0  0  0  0  0
    6.9829   -0.8250    0.0000 N   0  0  0  0  0  0  0  0  0  0  0  0
    6.1579   -0.8250    0.0000 C   0  0  0  0  0  0  0  0  0  0  0  0
    5.7454   -0.1105    0.0000 C   0  0  0  0  0  0  0  0  0  0  0  0
    4.9204   -0.1105    0.0000 C   0  0  0  0  0  0  0  0  0  0  0  0
    4.5079   -0.8250    0.0000 C   0  0  0  0  0  0  0  0  0  0  0  0
    4.9204   -1.5395    0.0000 C   0  0  0  0  0  0  0  0  0  0  0  0
    5.7454   -1.5395    0.0000 C   0  0  0  0  0  0  0  0  0  0  0  0
    4.5079   -2.2539    0.0000 N   0  0  0  0  0  0  0  0  0  0  0  0
    4.9204   -2.9684    0.0000 C   0  0  0  0  0  0  0  0  0  0  0  0
    5.7454   -2.9684    0.0000 O   0  0  0  0  0  0  0  0  0  0  0  0
    4.5079   -3.6829    0.0000 C   0  0  2  0  0  0  0  0  0  0  0  0
    4.9204   -4.3974    0.0000 C   0  0  0  0  0  0  0  0  0  0  0  0
    3.6829   -3.6829    0.0000 C   0  0  0  0  0  0  0  0  0  0  0  0
    3.2704   -2.9684    0.0000 C   0  0  0  0  0  0  0  0  0  0  0  0
    2.4454   -2.9684    0.0000 C   0  0  0  0  0  0  0  0  0  0  0  0
    2.0329   -2.2539    0.0000 C   0  0  2  0  0  0  0  0  0  0  0  0
    1.2079   -2.2539    0.0000 N   0  0  0  0  0  0  0  0  0  0  0  0
    0.7954   -2.9684    0.0000 C   0  0  0  0  0  0  0  0  0  0  0  0
   -0.0296   -2.9684    0.0000 C   0  0  0  0  0  0  0  0  0  0  0  0
   -0.4421   -2.2539    0.0000 C   0  0  0  0  0  0  0  0  0  0  0  0
   -1.2671   -2.2539    0.0000 C   0  0  0  0  0  0  0  0  0  0  0  0
   -1.6796   -2.9684    0.0000 C   0  0  0  0  0  0  0  0  0  0  0  0
   -2.5046   -2.9684    0.0000 N   0  0  0  0  0  0  0  0  0  0  0  0
   -2.9171   -2.2539    0.0000 C   0  0  0  0  0  0  0  0  0  0  0  0
   -2.5046   -1.5395    0.0000 C   0  0  0  0  0  0  0  0  0  0  0  0
   -2.9171   -0.8250    0.0000 Cl  0  0  0  0  0  0  0  0  0  0  0  0
   -1.6796   -1.5395    0.0000 C   0  0  0  0  0  0  0  0  0  0  0  0
   -0.0296   -1.5395    0.0000 C   0  0  0  0  0  0  0  0  0  0  0  0
    0.7954   -1.5395    0.0000 C   0  0  0  0  0  0  0  0  0  0  0  0
    1.2079   -0.8250    0.0000 O   0  0  0  0  0  0  0  0  0  0  0  0
    2.4454   -1.5395    0.0000 C   0  0  0  0  0  0  0  0  0  0  0  0
    3.2704   -1.5395    0.0000 C   0  0  0  0  0  0  0  0  0  0  0  0
    3.6829   -0.8250    0.0000 C   0  0  0  0  0  0  0  0  0  0  0  0
    3.2704   -0.1105    0.0000 C   0  0  0  0  0  0  0  0  0  0  0  0
    2.4454   -0.1105    0.0000 C   0  0  0  0  0  0  0  0  0  0  0  0
    2.0329   -0.8250    0.0000 N   0  0  0  0  0  0  0  0  0  0  0  0
  1  2  1  0  0  0  0
  2  3  1  0  0  0  0
  3  4  2  0  0  0  0
  3  5  1  0  0  0  0
  5  6  1  0  0  0  0
  6  7  4  0  0  0  0
  7  8  4  0  0  0  0
  8  9  4  0  0  0  0
  9 10  4  0  0  0  0
 10 11  4  0  0  0  0
  6 11  4  0  0  0  0
 10 12  1  0  0  0  0
 12 13  1  0  0  0  0
 13 14  2  0  0  0  0
 13 15  1  0  0  0  0
 15 16  1  6  0  0  0
 15 17  1  0  0  0  0
 17 18  1  0  0  0  0
 18 19  1  0  0  0  0
 19 20  1  0  0  0  0
 20 21  1  6  0  0  0
 21 22  1  0  0  0  0
 22 23  1  0  0  0  0
 23 24  1  0  0  0  0
 24 25  1  0  0  0  0
 25 26  4  0  0  0  0
 26 27  4  0  0  0  0
 27 28  4  0  0  0  0
 28 29  4  0  0  0  0
 29 30  1  0  0  0  0
 29 31  4  0  0  0  0
 25 31  4  0  0  0  0
 24 32  2  0  0  0  0
 32 33  1  0  0  0  0
 21 33  1  0  0  0  0
 33 34  2  0  0  0  0
 20 35  1  0  0  0  0
 35 36  4  0  0  0  0
 36 37  4  0  0  0  0
  9 37  1  0  0  0  0
 37 38  4  0  0  0  0
 38 39  4  0  0  0  0
 39 40  4  0  0  0  0
 35 40  4  0  0  0  0
M  END
>  <CdId>
358867

>  <Mol Weight>
560.043

>  <Formula>
C30H30ClN5O4

>  <cmpd_chemblid>
CHEMBL4110341

>  <std_type>
Ki

>  <std_value>
125.9

>  <std_unit>
nM

>  <target_id>
CHEMBL2016

>  <target_name>
Coagulation factor IX

>  <organism>
Homo sapiens

>  <target_type>
SINGLE PROTEIN

$$$$

  Mrv0541 08052111042D          

 43 48  0  0  1  0            999 V2000
    7.4317    4.3103    0.0000 C   0  0  0  0  0  0  0  0  0  0  0  0
    7.7017    3.5307    0.0000 C   0  0  2  0  0  0  0  0  0  0  0  0
    8.5119    3.3748    0.0000 C   0  0  0  0  0  0  0  0  0  0  0  0
    8.7819    2.5952    0.0000 C   0  0  0  0  0  0  0  0  0  0  0  0
    9.5921    2.4393    0.0000 C   0  0  0  0  0  0  0  0  0  0  0  0
    9.8621    1.6598    0.0000 C   0  0  2  0  0  0  0  0  0  0  0  0
   10.6722    1.5039    0.0000 N   0  0  0  0  0  0  0  0  0  0  0  0
   11.2123    2.1275    0.0000 C   0  0  0  0  0  0  0  0  0  0  0  0
   12.0225    1.9716    0.0000 C   0  0  0  0  0  0  0  0  0  0  0  0
   12.2925    1.1921    0.0000 C   0  0  0  0  0  0  0  0  0  0  0  0
   13.1026    1.0361    0.0000 C   0  0  0  0  0  0  0  0  0  0  0  0
   13.6427    1.6598    0.0000 C   0  0  0  0  0  0  0  0  0  0  0  0
   13.3727    2.4393    0.0000 F   0  0  0  0  0  0  0  0  0  0  0  0
   14.4529    1.5039    0.0000 C   0  0  0  0  0  0  0  0  0  0  0  0
   14.7229    0.7243    0.0000 C   0  0  0  0  0  0  0  0  0  0  0  0
   14.1828    0.1007    0.0000 C   0  0  0  0  0  0  0  0  0  0  0  0
   14.4529   -0.6789    0.0000 Cl  0  0  0  0  0  0  0  0  0  0  0  0
   13.3727    0.2566    0.0000 C   0  0  0  0  0  0  0  0  0  0  0  0
   12.8326   -0.3671    0.0000 F   0  0  0  0  0  0  0  0  0  0  0  0
   11.7524    0.5684    0.0000 C   0  0  0  0  0  0  0  0  0  0  0  0
   10.9423    0.7243    0.0000 C   0  0  0  0  0  0  0  0  0  0  0  0
   10.4022    0.1007    0.0000 O   0  0  0  0  0  0  0  0  0  0  0  0
    9.3220    1.0361    0.0000 C   0  0  0  0  0  0  0  0  0  0  0  0
    8.5119    1.1921    0.0000 C   0  0  0  0  0  0  0  0  0  0  0  0
    7.9718    0.5684    0.0000 C   0  0  0  0  0  0  0  0  0  0  0  0
    8.2418   -0.2111    0.0000 C   0  0  0  0  0  0  0  0  0  0  0  0
    9.0520   -0.3671    0.0000 C   0  0  0  0  0  0  0  0  0  0  0  0
    9.5921    0.2566    0.0000 N   0  0  0  0  0  0  0  0  0  0  0  0
    7.1617    0.7243    0.0000 C   0  0  0  0  0  0  0  0  0  0  0  0
    6.6216    0.1007    0.0000 C   0  0  0  0  0  0  0  0  0  0  0  0
    5.8114    0.2566    0.0000 C   0  0  0  0  0  0  0  0  0  0  0  0
    5.2713   -0.3671    0.0000 C   0  0  0  0  0  0  0  0  0  0  0  0
    5.5414   -1.1466    0.0000 O   0  0  0  0  0  0  0  0  0  0  0  0
    4.4612   -0.2111    0.0000 C   0  0  0  0  0  0  0  0  0  0  0  0
    4.1912    0.5684    0.0000 C   0  0  0  0  0  0  0  0  0  0  0  0
    3.3810    0.7243    0.0000 O   0  0  0  0  0  0  0  0  0  0  0  0
    4.7313    1.1921    0.0000 N   0  0  0  0  0  0  0  0  0  0  0  0
    5.5414    1.0361    0.0000 C   0  0  0  0  0  0  0  0  0  0  0  0
    6.0815    1.6598    0.0000 C   0  0  0  0  0  0  0  0  0  0  0  0
    6.8916    1.5039    0.0000 C   0  0  0  0  0  0  0  0  0  0  0  0
    7.4317    2.1275    0.0000 N   0  0  0  0  0  0  0  0  0  0  0  0
    7.1617    2.9071    0.0000 C   0  0  0  0  0  0  0  0  0  0  0  0
    6.3515    3.0630    0.0000 O   0  0  0  0  0  0  0  0  0  0  0  0
  2  1  1  6  0  0  0
  2  3  1  0  0  0  0
  3  4  1  0  0  0  0
  4  5  1  0  0  0  0
  5  6  1  0  0  0  0
  6  7  1  6  0  0  0
  7  8  1  0  0  0  0
  8  9  1  0  0  0  0
  9 10  1  0  0  0  0
 10 11  1  0  0  0  0
 11 12  4  0  0  0  0
 12 13  1  0  0  0  0
 12 14  4  0  0  0  0
 14 15  4  0  0  0  0
 15 16  4  0  0  0  0
 16 17  1  0  0  0  0
 16 18  4  0  0  0  0
 11 18  4  0  0  0  0
 18 19  1  0  0  0  0
 10 20  2  0  0  0  0
 20 21  1  0  0  0  0
  7 21  1  0  0  0  0
 21 22  2  0  0  0  0
  6 23  1  0  0  0  0
 23 24  4  0  0  0  0
 24 25  4  0  0  0  0
 25 26  4  0  0  0  0
 26 27  4  0  0  0  0
 27 28  4  0  0  0  0
 23 28  4  0  0  0  0
 25 29  1  0  0  0  0
 29 30  4  0  0  0  0
 30 31  4  0  0  0  0
 31 32  4  0  0  0  0
 32 33  1  0  0  0  0
 32 34  4  0  0  0  0
 34 35  4  0  0  0  0
 35 36  2  0  0  0  0
 35 37  4  0  0  0  0
 37 38  4  0  0  0  0
 31 38  4  0  0  0  0
 38 39  4  0  0  0  0
 39 40  4  0  0  0  0
 29 40  4  0  0  0  0
 40 41  1  0  0  0  0
 41 42  1  0  0  0  0
  2 42  1  0  0  0  0
 42 43  2  0  0  0  0
M  STY  1   1 DAT
M  SAL   1  1  37
M  SDT   1 MRV_IMPLICIT_H                                        
M  SDD   1     0.0000    0.0000    DR    ALL  0       0  
M  SED   1 IMPL_H1
M  END
>  <CdId>
358869

>  <Mol Weight>
605.031

>  <Formula>
C32H27ClF2N4O4

>  <cmpd_chemblid>
CHEMBL4108927

>  <std_type>
Ki

>  <std_value>
0.05

>  <std_unit>
nM

>  <target_id>
CHEMBL2016

>  <target_name>
Coagulation factor IX

>  <organism>
Homo sapiens

>  <target_type>
SINGLE PROTEIN

$$$$

  Mrv0541 08052111042D          

 35 38  0  0  1  0            999 V2000
    0.0000    0.0000    0.0000 C   0  0  0  0  0  0  0  0  0  0  0  0
   -0.7145   -0.4125    0.0000 C   0  0  0  0  0  0  0  0  0  0  0  0
   -0.7145   -1.2375    0.0000 O   0  0  0  0  0  0  0  0  0  0  0  0
   -1.4289   -1.6500    0.0000 C   0  0  0  0  0  0  0  0  0  0  0  0
   -2.1434   -1.2375    0.0000 O   0  0  0  0  0  0  0  0  0  0  0  0
   -1.4289   -2.4750    0.0000 C   0  0  2  0  0  0  0  0  0  0  0  0
   -2.1434   -2.8875    0.0000 C   0  0  0  0  0  0  0  0  0  0  0  0
   -2.1434   -3.7125    0.0000 C   0  0  0  0  0  0  0  0  0  0  0  0
   -1.4289   -4.1250    0.0000 C   0  0  0  0  0  0  0  0  0  0  0  0
   -0.7145   -3.7125    0.0000 C   0  0  0  0  0  0  0  0  0  0  0  0
   -0.7145   -2.8875    0.0000 C   0  0  0  0  0  0  0  0  0  0  0  0
    0.0000   -2.4750    0.0000 N   0  0  0  0  0  0  0  0  0  0  0  0
    0.7145   -2.8875    0.0000 C   0  0  0  0  0  0  0  0  0  0  0  0
    0.7145   -3.7125    0.0000 O   0  0  0  0  0  0  0  0  0  0  0  0
    1.4289   -2.4750    0.0000 C   0  0  0  0  0  0  0  0  0  0  0  0
    2.1434   -2.8875    0.0000 C   0  0  0  0  0  0  0  0  0  0  0  0
    2.1434   -3.7125    0.0000 C   0  0  0  0  0  0  0  0  0  0  0  0
    2.8579   -4.1250    0.0000 C   0  0  0  0  0  0  0  0  0  0  0  0
    2.8579   -4.9500    0.0000 C   0  0  0  0  0  0  0  0  0  0  0  0
    2.1434   -5.3625    0.0000 C   0  0  0  0  0  0  0  0  0  0  0  0
    1.4289   -4.9500    0.0000 C   0  0  0  0  0  0  0  0  0  0  0  0
    1.4289   -4.1250    0.0000 C   0  0  0  0  0  0  0  0  0  0  0  0
    1.4289   -1.6500    0.0000 C   0  0  0  0  0  0  0  0  0  0  0  0
    0.7145   -1.2375    0.0000 C   0  0  0  0  0  0  0  0  0  0  0  0
    0.7145   -0.4125    0.0000 C   0  0  0  0  0  0  0  0  0  0  0  0
    1.4289    0.0000    0.0000 C   0  0  0  0  0  0  0  0  0  0  0  0
    2.1434   -0.4125    0.0000 C   0  0  0  0  0  0  0  0  0  0  0  0
    2.8579    0.0000    0.0000 C   0  0  0  0  0  0  0  0  0  0  0  0
    3.5724   -0.4125    0.0000 C   0  0  0  0  0  0  0  0  0  0  0  0
    3.5724   -1.2375    0.0000 C   0  0  0  0  0  0  0  0  0  0  0  0
    4.2868   -1.6500    0.0000 C   0  0  0  0  0  0  0  0  0  0  0  0
    5.0013   -1.2375    0.0000 N   0  0  0  0  0  0  0  0  0  0  0  0
    4.2868   -2.4750    0.0000 N   0  0  0  0  0  0  0  0  0  0  0  0
    2.8579   -1.6500    0.0000 C   0  0  0  0  0  0  0  0  0  0  0  0
    2.1434   -1.2375    0.0000 C   0  0  0  0  0  0  0  0  0  0  0  0
  1  2  1  0  0  0  0
  2  3  1  0  0  0  0
  3  4  1  0  0  0  0
  4  5  2  0  0  0  0
  6  4  1  1  0  0  0
  6  7  1  0  0  0  0
  7  8  1  0  0  0  0
  8  9  1  0  0  0  0
  9 10  1  0  0  0  0
 10 11  1  0  0  0  0
  6 11  1  0  0  0  0
 11 12  1  0  0  0  0
 12 13  1  0  0  0  0
 13 14  2  0  0  0  0
 13 15  1  0  0  0  0
 15 16  1  0  0  0  0
 16 17  1  0  0  0  0
 17 18  4  0  0  0  0
 18 19  4  0  0  0  0
 19 20  4  0  0  0  0
 20 21  4  0  0  0  0
 21 22  4  0  0  0  0
 17 22  4  0  0  0  0
 15 23  1  0  0  0  0
 23 24  4  0  0  0  0
 24 25  4  0  0  0  0
 25 26  4  0  0  0  0
 26 27  4  0  0  0  0
 27 28  4  0  0  0  0
 28 29  4  0  0  0  0
 29 30  4  0  0  0  0
 30 31  1  0  0  0  0
 31 32  2  0  0  0  0
 31 33  1  0  0  0  0
 30 34  4  0  0  0  0
 34 35  4  0  0  0  0
 23 35  4  0  0  0  0
 27 35  4  0  0  0  0
M  END
>  <CdId>
358871

>  <Mol Weight>
471.5906

>  <Formula>
C29H33N3O3

>  <cmpd_chemblid>
CHEMBL362478

>  <std_type>
Ki

>  <std_value>
240.0

>  <std_unit>
nM

>  <target_id>
CHEMBL2016

>  <target_name>
Coagulation factor IX

>  <organism>
Homo sapiens

>  <target_type>
SINGLE PROTEIN

$$$$

  Mrv0541 08052111042D          

 30 32  0  0  0  0            999 V2000
    5.0013    0.4125    0.0000 C   0  0  0  0  0  0  0  0  0  0  0  0
    5.0013   -0.4125    0.0000 C   0  0  0  0  0  0  0  0  0  0  0  0
    4.1763   -0.4125    0.0000 C   0  0  0  0  0  0  0  0  0  0  0  0
    5.8263   -0.4125    0.0000 C   0  0  0  0  0  0  0  0  0  0  0  0
    5.0013   -1.2375    0.0000 C   0  0  0  0  0  0  0  0  0  0  0  0
    5.7158   -1.6500    0.0000 C   0  0  0  0  0  0  0  0  0  0  0  0
    5.7158   -2.4750    0.0000 C   0  0  0  0  0  0  0  0  0  0  0  0
    5.0013   -2.8875    0.0000 C   0  0  0  0  0  0  0  0  0  0  0  0
    5.0013   -3.7125    0.0000 C   0  0  0  0  0  0  0  0  0  0  0  0
    5.7158   -4.1250    0.0000 C   0  0  0  0  0  0  0  0  0  0  0  0
    5.7158   -4.9500    0.0000 C   0  0  0  0  0  0  0  0  0  0  0  0
    5.0013   -5.3625    0.0000 C   0  0  0  0  0  0  0  0  0  0  0  0
    4.2868   -4.9500    0.0000 C   0  0  0  0  0  0  0  0  0  0  0  0
    3.5724   -5.3625    0.0000 C   0  0  0  0  0  0  0  0  0  0  0  0
    3.5724   -6.1875    0.0000 O   0  0  0  0  0  0  0  0  0  0  0  0
    2.8579   -4.9500    0.0000 C   0  0  0  0  0  0  0  0  0  0  0  0
    2.8579   -4.1250    0.0000 O   0  0  0  0  0  0  0  0  0  0  0  0
    2.1434   -5.3625    0.0000 N   0  0  0  0  0  0  0  0  0  0  0  0
    1.4289   -4.9500    0.0000 C   0  0  0  0  0  0  0  0  0  0  0  0
    0.7145   -5.3625    0.0000 C   0  0  0  0  0  0  0  0  0  0  0  0
   -0.0000   -4.9500    0.0000 C   0  0  0  0  0  0  0  0  0  0  0  0
   -0.0000   -4.1250    0.0000 C   0  0  0  0  0  0  0  0  0  0  0  0
   -0.7145   -3.7125    0.0000 C   0  0  0  0  0  0  0  0  0  0  0  0
   -1.4289   -4.1250    0.0000 N   0  0  0  0  0  0  0  0  0  0  0  0
   -0.7145   -2.8875    0.0000 N   0  0  0  0  0  0  0  0  0  0  0  0
    0.7145   -3.7125    0.0000 C   0  0  0  0  0  0  0  0  0  0  0  0
    1.4289   -4.1250    0.0000 C   0  0  0  0  0  0  0  0  0  0  0  0
    4.2868   -4.1250    0.0000 C   0  0  0  0  0  0  0  0  0  0  0  0
    4.2868   -2.4750    0.0000 C   0  0  0  0  0  0  0  0  0  0  0  0
    4.2868   -1.6500    0.0000 C   0  0  0  0  0  0  0  0  0  0  0  0
  1  2  1  0  0  0  0
  2  3  1  0  0  0  0
  2  4  1  0  0  0  0
  2  5  1  0  0  0  0
  5  6  4  0  0  0  0
  6  7  4  0  0  0  0
  7  8  4  0  0  0  0
  8  9  1  0  0  0  0
  9 10  4  0  0  0  0
 10 11  4  0  0  0  0
 11 12  4  0  0  0  0
 12 13  4  0  0  0  0
 13 14  1  0  0  0  0
 14 15  1  0  0  0  0
 14 16  1  0  0  0  0
 16 17  2  0  0  0  0
 16 18  1  0  0  0  0
 18 19  1  0  0  0  0
 19 20  4  0  0  0  0
 20 21  4  0  0  0  0
 21 22  4  0  0  0  0
 22 23  1  0  0  0  0
 23 24  2  0  0  0  0
 23 25  1  0  0  0  0
 22 26  4  0  0  0  0
 26 27  4  0  0  0  0
 19 27  4  0  0  0  0
 13 28  4  0  0  0  0
  9 28  4  0  0  0  0
  8 29  4  0  0  0  0
 29 30  4  0  0  0  0
  5 30  4  0  0  0  0
M  END
>  <CdId>
358872

>  <Mol Weight>
401.5008

>  <Formula>
C25H27N3O2

>  <cmpd_chemblid>
CHEMBL3939683

>  <std_type>
Ki

>  <std_value>
80.0

>  <std_unit>
nM

>  <target_id>
CHEMBL2016

>  <target_name>
Coagulation factor IX

>  <organism>
Homo sapiens

>  <target_type>
SINGLE PROTEIN

$$$$

  Mrv0541 08052111042D          

 42 46  0  0  1  0            999 V2000
    8.6329   -2.2539    0.0000 C   0  0  0  0  0  0  0  0  0  0  0  0
    8.2204   -1.5395    0.0000 O   0  0  0  0  0  0  0  0  0  0  0  0
    7.3954   -1.5395    0.0000 C   0  0  0  0  0  0  0  0  0  0  0  0
    6.9829   -2.2539    0.0000 O   0  0  0  0  0  0  0  0  0  0  0  0
    6.9829   -0.8250    0.0000 N   0  0  0  0  0  0  0  0  0  0  0  0
    6.1579   -0.8250    0.0000 C   0  0  0  0  0  0  0  0  0  0  0  0
    5.7454   -0.1105    0.0000 C   0  0  0  0  0  0  0  0  0  0  0  0
    4.9204   -0.1105    0.0000 C   0  0  0  0  0  0  0  0  0  0  0  0
    4.5079   -0.8250    0.0000 C   0  0  0  0  0  0  0  0  0  0  0  0
    4.9204   -1.5395    0.0000 C   0  0  0  0  0  0  0  0  0  0  0  0
    5.7454   -1.5395    0.0000 C   0  0  0  0  0  0  0  0  0  0  0  0
    4.5079   -2.2539    0.0000 C   0  0  0  0  0  0  0  0  0  0  0  0
    3.6829   -2.2539    0.0000 O   0  0  0  0  0  0  0  0  0  0  0  0
    4.9204   -2.9684    0.0000 N   0  0  0  0  0  0  0  0  0  0  0  0
    4.5079   -3.6829    0.0000 C   0  0  2  0  0  0  0  0  0  0  0  0
    4.9204   -4.3974    0.0000 C   0  0  0  0  0  0  0  0  0  0  0  0
    3.6829   -3.6829    0.0000 C   0  0  0  0  0  0  0  0  0  0  0  0
    3.2704   -2.9684    0.0000 C   0  0  0  0  0  0  0  0  0  0  0  0
    2.4454   -2.9684    0.0000 C   0  0  0  0  0  0  0  0  0  0  0  0
    2.0329   -2.2539    0.0000 C   0  0  2  0  0  0  0  0  0  0  0  0
    1.2079   -2.2539    0.0000 N   0  0  0  0  0  0  0  0  0  0  0  0
    0.7954   -2.9684    0.0000 C   0  0  0  0  0  0  0  0  0  0  0  0
   -0.0296   -2.9684    0.0000 C   0  0  0  0  0  0  0  0  0  0  0  0
   -0.4421   -2.2539    0.0000 C   0  0  0  0  0  0  0  0  0  0  0  0
   -1.2671   -2.2539    0.0000 C   0  0  0  0  0  0  0  0  0  0  0  0
   -1.6796   -2.9684    0.0000 C   0  0  0  0  0  0  0  0  0  0  0  0
   -1.2671   -3.6829    0.0000 F   0  0  0  0  0  0  0  0  0  0  0  0
   -2.5046   -2.9684    0.0000 C   0  0  0  0  0  0  0  0  0  0  0  0
   -2.9171   -2.2539    0.0000 C   0  0  0  0  0  0  0  0  0  0  0  0
   -2.5046   -1.5395    0.0000 C   0  0  0  0  0  0  0  0  0  0  0  0
   -2.9171   -0.8250    0.0000 Cl  0  0  0  0  0  0  0  0  0  0  0  0
   -1.6796   -1.5395    0.0000 C   0  0  0  0  0  0  0  0  0  0  0  0
   -1.2671   -0.8250    0.0000 F   0  0  0  0  0  0  0  0  0  0  0  0
   -0.0296   -1.5395    0.0000 C   0  0  0  0  0  0  0  0  0  0  0  0
    0.7954   -1.5395    0.0000 C   0  0  0  0  0  0  0  0  0  0  0  0
    1.2079   -0.8250    0.0000 O   0  0  0  0  0  0  0  0  0  0  0  0
    2.4454   -1.5395    0.0000 C   0  0  0  0  0  0  0  0  0  0  0  0
    3.2704   -1.5395    0.0000 C   0  0  0  0  0  0  0  0  0  0  0  0
    3.6829   -0.8250    0.0000 C   0  0  0  0  0  0  0  0  0  0  0  0
    3.2704   -0.1105    0.0000 C   0  0  0  0  0  0  0  0  0  0  0  0
    2.4454   -0.1105    0.0000 C   0  0  0  0  0  0  0  0  0  0  0  0
    2.0329   -0.8250    0.0000 N   0  0  0  0  0  0  0  0  0  0  0  0
  1  2  1  0  0  0  0
  2  3  1  0  0  0  0
  3  4  2  0  0  0  0
  3  5  1  0  0  0  0
  5  6  1  0  0  0  0
  6  7  4  0  0  0  0
  7  8  4  0  0  0  0
  8  9  4  0  0  0  0
  9 10  4  0  0  0  0
 10 11  4  0  0  0  0
  6 11  4  0  0  0  0
 10 12  1  0  0  0  0
 12 13  2  0  0  0  0
 12 14  1  0  0  0  0
 14 15  1  0  0  0  0
 15 16  1  6  0  0  0
 15 17  1  0  0  0  0
 17 18  1  0  0  0  0
 18 19  1  0  0  0  0
 19 20  1  0  0  0  0
 20 21  1  6  0  0  0
 21 22  1  0  0  0  0
 22 23  1  0  0  0  0
 23 24  1  0  0  0  0
 24 25  1  0  0  0  0
 25 26  4  0  0  0  0
 26 27  1  0  0  0  0
 26 28  4  0  0  0  0
 28 29  4  0  0  0  0
 29 30  4  0  0  0  0
 30 31  1  0  0  0  0
 30 32  4  0  0  0  0
 25 32  4  0  0  0  0
 32 33  1  0  0  0  0
 24 34  2  0  0  0  0
 34 35  1  0  0  0  0
 21 35  1  0  0  0  0
 35 36  2  0  0  0  0
 20 37  1  0  0  0  0
 37 38  4  0  0  0  0
 38 39  4  0  0  0  0
  9 39  1  0  0  0  0
 39 40  4  0  0  0  0
 40 41  4  0  0  0  0
 41 42  4  0  0  0  0
 37 42  4  0  0  0  0
M  END
>  <CdId>
358873

>  <Mol Weight>
595.036

>  <Formula>
C31H29ClF2N4O4

>  <cmpd_chemblid>
CHEMBL4106796

>  <std_type>
Ki

>  <std_value>
421.5

>  <std_unit>
nM

>  <target_id>
CHEMBL2016

>  <target_name>
Coagulation factor IX

>  <organism>
Homo sapiens

>  <target_type>
SINGLE PROTEIN

$$$$

  Mrv0541 08052111042D          

 32 35  0  0  0  0            999 V2000
   -1.6166   -5.0850    0.0000 C   0  0  0  0  0  0  0  0  0  0  0  0
   -2.2296   -4.5330    0.0000 C   0  0  0  0  0  0  0  0  0  0  0  0
   -3.0366   -4.7045    0.0000 N   0  0  0  0  0  0  0  0  0  0  0  0
   -3.4491   -3.9900    0.0000 O   0  0  0  0  0  0  0  0  0  0  0  0
   -2.8971   -3.3769    0.0000 C   0  0  0  0  0  0  0  0  0  0  0  0
   -3.0686   -2.5700    0.0000 C   0  0  0  0  0  0  0  0  0  0  0  0
   -2.1434   -3.7125    0.0000 C   0  0  0  0  0  0  0  0  0  0  0  0
   -1.4289   -3.3000    0.0000 N   0  0  0  0  0  0  0  0  0  0  0  0
   -0.7145   -3.7125    0.0000 C   0  0  0  0  0  0  0  0  0  0  0  0
   -0.7145   -4.5375    0.0000 O   0  0  0  0  0  0  0  0  0  0  0  0
    0.0000   -3.3000    0.0000 O   0  0  0  0  0  0  0  0  0  0  0  0
    0.7145   -3.7125    0.0000 C   0  0  0  0  0  0  0  0  0  0  0  0
    1.4289   -3.3000    0.0000 C   0  0  0  0  0  0  0  0  0  0  0  0
    2.1434   -3.7125    0.0000 O   0  0  0  0  0  0  0  0  0  0  0  0
    2.8579   -3.3000    0.0000 C   0  0  0  0  0  0  0  0  0  0  0  0
    2.8579   -2.4750    0.0000 C   0  0  0  0  0  0  0  0  0  0  0  0
    3.5724   -2.0625    0.0000 C   0  0  0  0  0  0  0  0  0  0  0  0
    4.2868   -2.4750    0.0000 C   0  0  0  0  0  0  0  0  0  0  0  0
    4.2868   -3.3000    0.0000 C   0  0  0  0  0  0  0  0  0  0  0  0
    4.8999   -3.8520    0.0000 S   0  0  0  0  0  0  0  0  0  0  0  0
    4.5644   -4.6057    0.0000 C   0  0  0  0  0  0  0  0  0  0  0  0
    4.9769   -5.3202    0.0000 C   0  0  0  0  0  0  0  0  0  0  0  0
    5.8019   -5.3202    0.0000 N   0  0  0  0  0  0  0  0  0  0  0  0
    4.5644   -6.0346    0.0000 N   0  0  0  0  0  0  0  0  0  0  0  0
    3.7439   -4.5195    0.0000 C   0  0  0  0  0  0  0  0  0  0  0  0
    3.5724   -3.7125    0.0000 C   0  0  0  0  0  0  0  0  0  0  0  0
    1.4289   -2.4750    0.0000 C   0  0  0  0  0  0  0  0  0  0  0  0
    0.7145   -2.0625    0.0000 C   0  0  0  0  0  0  0  0  0  0  0  0
    0.7145   -1.2375    0.0000 C   0  0  0  0  0  0  0  0  0  0  0  0
    1.4289   -0.8250    0.0000 C   0  0  0  0  0  0  0  0  0  0  0  0
    2.1434   -1.2375    0.0000 C   0  0  0  0  0  0  0  0  0  0  0  0
    2.1434   -2.0625    0.0000 C   0  0  0  0  0  0  0  0  0  0  0  0
  1  2  1  0  0  0  0
  2  3  4  0  0  0  0
  3  4  4  0  0  0  0
  4  5  4  0  0  0  0
  5  6  1  0  0  0  0
  5  7  4  0  0  0  0
  2  7  4  0  0  0  0
  7  8  1  0  0  0  0
  8  9  1  0  0  0  0
  9 10  2  0  0  0  0
  9 11  1  0  0  0  0
 11 12  1  0  0  0  0
 12 13  1  0  0  0  0
 13 14  1  0  0  0  0
 14 15  1  0  0  0  0
 15 16  4  0  0  0  0
 16 17  4  0  0  0  0
 17 18  4  0  0  0  0
 18 19  4  0  0  0  0
 19 20  4  0  0  0  0
 20 21  4  0  0  0  0
 21 22  1  0  0  0  0
 22 23  2  0  0  0  0
 22 24  1  0  0  0  0
 21 25  4  0  0  0  0
 25 26  4  0  0  0  0
 15 26  4  0  0  0  0
 19 26  4  0  0  0  0
 13 27  1  0  0  0  0
 27 28  4  0  0  0  0
 28 29  4  0  0  0  0
 29 30  4  0  0  0  0
 30 31  4  0  0  0  0
 31 32  4  0  0  0  0
 27 32  4  0  0  0  0
M  END
>  <CdId>
358874

>  <Mol Weight>
450.51

>  <Formula>
C23H22N4O4S

>  <cmpd_chemblid>
CHEMBL598169

>  <std_type>
Ki

>  <std_value>
12.0

>  <std_unit>
nM

>  <target_id>
CHEMBL2016

>  <target_name>
Coagulation factor IX

>  <organism>
Homo sapiens

>  <target_type>
SINGLE PROTEIN

$$$$

  Mrv0541 08052111042D          

 30 33  0  0  1  0            999 V2000
    2.6378    3.9979    0.0000 N   0  0  0  0  0  0  0  0  0  0  0  0
    2.6378    4.8229    0.0000 C   0  0  0  0  0  0  0  0  0  0  0  0
    2.6378    5.6479    0.0000 C   0  0  0  0  0  0  0  0  0  0  0  0
    1.9233    6.0604    0.0000 C   0  0  0  0  0  0  0  0  0  0  0  0
    1.9233    6.8854    0.0000 C   0  0  0  0  0  0  0  0  0  0  0  0
    2.6378    7.2979    0.0000 C   0  0  0  0  0  0  0  0  0  0  0  0
    3.3523    6.8854    0.0000 C   0  0  0  0  0  0  0  0  0  0  0  0
    3.3523    6.0604    0.0000 C   0  0  0  0  0  0  0  0  0  0  0  0
    4.0668    5.6479    0.0000 N   0  0  0  0  0  0  0  0  0  0  0  0
    4.7812    6.0604    0.0000 C   0  0  0  0  0  0  0  0  0  0  0  0
    5.4957    5.6479    0.0000 C   0  0  0  0  0  0  0  0  0  0  0  0
    5.4957    4.8229    0.0000 O   0  0  0  0  0  0  0  0  0  0  0  0
    4.7812    4.4104    0.0000 C   0  0  2  0  0  0  0  0  0  0  0  0
    4.7812    3.5854    0.0000 C   0  0  0  0  0  0  0  0  0  0  0  0
    5.4957    3.1729    0.0000 O   0  0  0  0  0  0  0  0  0  0  0  0
    4.0668    3.1729    0.0000 C   0  0  0  0  0  0  0  0  0  0  0  0
    3.3523    3.5854    0.0000 O   0  0  0  0  0  0  0  0  0  0  0  0
    4.0668    2.3479    0.0000 N   0  0  0  0  0  0  0  0  0  0  0  0
    3.3523    1.9354    0.0000 C   0  0  0  0  0  0  0  0  0  0  0  0
    3.3523    1.1104    0.0000 C   0  0  0  0  0  0  0  0  0  0  0  0
    2.6378    0.6979    0.0000 C   0  0  0  0  0  0  0  0  0  0  0  0
    1.9233    1.1104    0.0000 C   0  0  0  0  0  0  0  0  0  0  0  0
    1.9233    1.9354    0.0000 C   0  0  0  0  0  0  0  0  0  0  0  0
    2.6378    2.3479    0.0000 C   0  0  0  0  0  0  0  0  0  0  0  0
    1.1387    2.1904    0.0000 C   0  0  0  0  0  0  0  0  0  0  0  0
    0.6538    1.5229    0.0000 N   0  0  0  0  0  0  0  0  0  0  0  0
    1.1387    0.8555    0.0000 C   0  0  0  0  0  0  0  0  0  0  0  0
    0.8838    0.0709    0.0000 N   0  0  0  0  0  0  0  0  0  0  0  0
    4.0668    4.8229    0.0000 C   0  0  0  0  0  0  0  0  0  0  0  0
    3.3523    4.4104    0.0000 O   0  0  0  0  0  0  0  0  0  0  0  0
  1  2  3  0  0  0  0
  2  3  1  0  0  0  0
  3  4  4  0  0  0  0
  4  5  4  0  0  0  0
  5  6  4  0  0  0  0
  6  7  4  0  0  0  0
  7  8  4  0  0  0  0
  3  8  4  0  0  0  0
  8  9  1  0  0  0  0
  9 10  1  0  0  0  0
 10 11  1  0  0  0  0
 11 12  1  0  0  0  0
 12 13  1  0  0  0  0
 13 14  1  6  0  0  0
 14 15  1  0  0  0  0
 14 16  1  0  0  0  0
 16 17  2  0  0  0  0
 16 18  1  0  0  0  0
 18 19  1  0  0  0  0
 19 20  4  0  0  0  0
 20 21  4  0  0  0  0
 21 22  4  0  0  0  0
 22 23  4  0  0  0  0
 23 24  4  0  0  0  0
 19 24  4  0  0  0  0
 23 25  1  0  0  0  0
 25 26  1  0  0  0  0
 26 27  1  0  0  0  0
 22 27  1  0  0  0  0
 27 28  2  0  0  0  0
 13 29  1  0  0  0  0
  9 29  1  0  0  0  0
 29 30  2  0  0  0  0
M  END
>  <CdId>
358877

>  <Mol Weight>
405.4067

>  <Formula>
C21H19N5O4

>  <cmpd_chemblid>
CHEMBL3658394

>  <std_type>
Ki

>  <std_value>
33.0

>  <std_unit>
nM

>  <target_id>
CHEMBL2016

>  <target_name>
Coagulation factor IX

>  <organism>
Homo sapiens

>  <target_type>
SINGLE PROTEIN

$$$$

  Mrv0541 08052111042D          

 30 33  0  0  1  0            999 V2000
    2.8579   -6.6000    0.0000 C   0  0  0  0  0  0  0  0  0  0  0  0
    2.1434   -6.1875    0.0000 C   0  0  0  0  0  0  0  0  0  0  0  0
    1.4289   -6.6000    0.0000 C   0  0  0  0  0  0  0  0  0  0  0  0
    0.7145   -6.1875    0.0000 C   0  0  0  0  0  0  0  0  0  0  0  0
    0.7145   -5.3625    0.0000 C   0  0  0  0  0  0  0  0  0  0  0  0
    0.0000   -4.9500    0.0000 N   0  0  0  0  0  0  0  0  0  0  0  0
   -0.7145   -5.3625    0.0000 C   0  0  0  0  0  0  0  0  0  0  0  0
   -1.4289   -4.9500    0.0000 C   0  0  0  0  0  0  0  0  0  0  0  0
   -1.4289   -4.1250    0.0000 O   0  0  0  0  0  0  0  0  0  0  0  0
   -0.7145   -3.7125    0.0000 C   0  0  2  0  0  0  0  0  0  0  0  0
   -0.7145   -2.8875    0.0000 C   0  0  1  0  0  0  0  0  0  0  0  0
   -1.4289   -2.4750    0.0000 O   0  0  0  0  0  0  0  0  0  0  0  0
    0.0000   -2.4750    0.0000 C   0  0  0  0  0  0  0  0  0  0  0  0
    0.7145   -2.8875    0.0000 O   0  0  0  0  0  0  0  0  0  0  0  0
    0.0000   -1.6500    0.0000 N   0  0  0  0  0  0  0  0  0  0  0  0
    0.7145   -1.2375    0.0000 C   0  0  0  0  0  0  0  0  0  0  0  0
    0.7145   -0.4125    0.0000 C   0  0  0  0  0  0  0  0  0  0  0  0
    1.4289    0.0000    0.0000 C   0  0  0  0  0  0  0  0  0  0  0  0
    2.1434   -0.4125    0.0000 C   0  0  0  0  0  0  0  0  0  0  0  0
    2.8579    0.0000    0.0000 C   0  0  0  0  0  0  0  0  0  0  0  0
    2.8579    0.8250    0.0000 N   0  0  0  0  0  0  0  0  0  0  0  0
    3.5724   -0.4125    0.0000 N   0  0  0  0  0  0  0  0  0  0  0  0
    3.5724   -1.2375    0.0000 C   0  0  0  0  0  0  0  0  0  0  0  0
    2.8579   -1.6500    0.0000 C   0  0  0  0  0  0  0  0  0  0  0  0
    2.1434   -1.2375    0.0000 C   0  0  0  0  0  0  0  0  0  0  0  0
    1.4289   -1.6500    0.0000 C   0  0  0  0  0  0  0  0  0  0  0  0
    0.0000   -4.1250    0.0000 C   0  0  0  0  0  0  0  0  0  0  0  0
    0.7145   -3.7125    0.0000 O   0  0  0  0  0  0  0  0  0  0  0  0
    1.4289   -4.9500    0.0000 C   0  0  0  0  0  0  0  0  0  0  0  0
    2.1434   -5.3625    0.0000 C   0  0  0  0  0  0  0  0  0  0  0  0
  1  2  1  0  0  0  0
  2  3  4  0  0  0  0
  3  4  4  0  0  0  0
  4  5  4  0  0  0  0
  5  6  1  0  0  0  0
  6  7  1  0  0  0  0
  7  8  1  0  0  0  0
  8  9  1  0  0  0  0
  9 10  1  0  0  0  0
 10 11  1  6  0  0  0
 11 12  1  1  0  0  0
 11 13  1  0  0  0  0
 13 14  2  0  0  0  0
 13 15  1  0  0  0  0
 15 16  1  0  0  0  0
 16 17  4  0  0  0  0
 17 18  4  0  0  0  0
 18 19  4  0  0  0  0
 19 20  4  0  0  0  0
 20 21  1  0  0  0  0
 20 22  4  0  0  0  0
 22 23  4  0  0  0  0
 23 24  4  0  0  0  0
 24 25  4  0  0  0  0
 19 25  4  0  0  0  0
 25 26  4  0  0  0  0
 16 26  4  0  0  0  0
 10 27  1  0  0  0  0
  6 27  1  0  0  0  0
 27 28  2  0  0  0  0
  5 29  4  0  0  0  0
 29 30  4  0  0  0  0
  2 30  4  0  0  0  0
M  END
>  <CdId>
358879

>  <Mol Weight>
406.4345

>  <Formula>
C22H22N4O4

>  <cmpd_chemblid>
CHEMBL3658386

>  <std_type>
Ki

>  <std_value>
10.0

>  <std_unit>
nM

>  <target_id>
CHEMBL2016

>  <target_name>
Coagulation factor IX

>  <organism>
Homo sapiens

>  <target_type>
SINGLE PROTEIN

$$$$

  Mrv0541 08052111042D          

 40 44  0  0  1  0            999 V2000
    1.4289   -2.4750    0.0000 N   0  0  0  0  0  0  0  0  0  0  0  0
    1.4289   -1.6500    0.0000 C   0  0  0  0  0  0  0  0  0  0  0  0
    0.7145   -1.2375    0.0000 N   0  0  0  0  0  0  0  0  0  0  0  0
    0.7145   -0.4125    0.0000 C   0  0  0  0  0  0  0  0  0  0  0  0
    1.4289    0.0000    0.0000 C   0  0  0  0  0  0  0  0  0  0  0  0
    2.1434   -0.4125    0.0000 C   0  0  0  0  0  0  0  0  0  0  0  0
    2.8579    0.0000    0.0000 C   0  0  0  0  0  0  0  0  0  0  0  0
    3.5724   -0.4125    0.0000 C   0  0  0  0  0  0  0  0  0  0  0  0
    4.2868   -0.0000    0.0000 C   0  0  0  0  0  0  0  0  0  0  0  0
    4.2868    0.8250    0.0000 C   0  0  2  0  0  0  0  0  0  0  0  0
    3.5724    1.2375    0.0000 C   0  0  0  0  0  0  0  0  0  0  0  0
    2.8579    0.8250    0.0000 O   0  0  0  0  0  0  0  0  0  0  0  0
    3.5724    2.0625    0.0000 O   0  0  0  0  0  0  0  0  0  0  0  0
    5.0013    1.2375    0.0000 N   0  0  0  0  0  0  0  0  0  0  0  0
    5.0875    2.0580    0.0000 C   0  0  0  0  0  0  0  0  0  0  0  0
    5.8945    2.2295    0.0000 C   0  0  0  0  0  0  0  0  0  0  0  0
    6.3070    1.5150    0.0000 C   0  0  2  0  0  0  0  0  0  0  0  0
    7.1275    1.4288    0.0000 N   0  0  0  0  0  0  0  0  0  0  0  0
    7.6124    2.0962    0.0000 S   0  0  0  0  0  0  0  0  0  0  0  0
    8.2798    1.6113    0.0000 O   0  0  0  0  0  0  0  0  0  0  0  0
    6.9450    2.5812    0.0000 O   0  0  0  0  0  0  0  0  0  0  0  0
    8.0973    2.7637    0.0000 C   0  0  0  0  0  0  0  0  0  0  0  0
    7.8424    3.5483    0.0000 C   0  0  0  0  0  0  0  0  0  0  0  0
    8.5098    4.0332    0.0000 N   0  0  0  0  0  0  0  0  0  0  0  0
    9.1773    3.5483    0.0000 C   0  0  0  0  0  0  0  0  0  0  0  0
    9.9619    3.8032    0.0000 N   0  0  0  0  0  0  0  0  0  0  0  0
   10.3364    4.5383    0.0000 C   0  0  0  0  0  0  0  0  0  0  0  0
   11.0715    4.1638    0.0000 C   0  0  0  0  0  0  0  0  0  0  0  0
   10.6970    3.4287    0.0000 C   0  0  0  0  0  0  0  0  0  0  0  0
    8.9223    2.7637    0.0000 S   0  0  0  0  0  0  0  0  0  0  0  0
    5.7550    0.9019    0.0000 C   0  0  0  0  0  0  0  0  0  0  0  0
    5.9265    0.0950    0.0000 O   0  0  0  0  0  0  0  0  0  0  0  0
    3.5724   -1.2375    0.0000 C   0  0  0  0  0  0  0  0  0  0  0  0
    4.2868   -1.6500    0.0000 O   0  0  0  0  0  0  0  0  0  0  0  0
    4.2868   -2.4750    0.0000 C   0  0  0  0  0  0  0  0  0  0  0  0
    3.4618   -2.4750    0.0000 F   0  0  0  0  0  0  0  0  0  0  0  0
    5.1118   -2.4750    0.0000 F   0  0  0  0  0  0  0  0  0  0  0  0
    4.2868   -3.3000    0.0000 F   0  0  0  0  0  0  0  0  0  0  0  0
    2.8579   -1.6500    0.0000 C   0  0  0  0  0  0  0  0  0  0  0  0
    2.1434   -1.2375    0.0000 C   0  0  0  0  0  0  0  0  0  0  0  0
  1  2  1  0  0  0  0
  2  3  4  0  0  0  0
  3  4  4  0  0  0  0
  4  5  4  0  0  0  0
  5  6  4  0  0  0  0
  6  7  4  0  0  0  0
  7  8  4  0  0  0  0
  8  9  1  0  0  0  0
  9 10  1  0  0  0  0
 10 11  1  0  0  0  0
 11 12  2  0  0  0  0
 11 13  1  0  0  0  0
 10 14  1  6  0  0  0
 14 15  1  0  0  0  0
 15 16  1  0  0  0  0
 16 17  1  0  0  0  0
 17 18  1  6  0  0  0
 18 19  1  0  0  0  0
 19 20  2  0  0  0  0
 19 21  2  0  0  0  0
 19 22  1  0  0  0  0
 22 23  4  0  0  0  0
 23 24  4  0  0  0  0
 24 25  4  0  0  0  0
 25 26  1  0  0  0  0
 26 27  1  0  0  0  0
 27 28  1  0  0  0  0
 28 29  1  0  0  0  0
 26 29  1  0  0  0  0
 25 30  4  0  0  0  0
 22 30  4  0  0  0  0
 17 31  1  0  0  0  0
 14 31  1  0  0  0  0
 31 32  2  0  0  0  0
  8 33  4  0  0  0  0
 33 34  1  0  0  0  0
 34 35  1  0  0  0  0
 35 36  1  0  0  0  0
 35 37  1  0  0  0  0
 35 38  1  0  0  0  0
 33 39  4  0  0  0  0
 39 40  4  0  0  0  0
  2 40  4  0  0  0  0
  6 40  4  0  0  0  0
M  END
>  <CdId>
358880

>  <Mol Weight>
600.591

>  <Formula>
C23H23F3N6O6S2

>  <cmpd_chemblid>
CHEMBL3967772

>  <std_type>
Ki

>  <std_value>
70.0

>  <std_unit>
nM

>  <target_id>
CHEMBL2016

>  <target_name>
Coagulation factor IX

>  <organism>
Homo sapiens

>  <target_type>
SINGLE PROTEIN

$$$$

  Mrv0541 08052111042D          

 41 43  0  0  1  0            999 V2000
   -4.4318    0.5512    0.0000 C   0  0  0  0  0  0  0  0  0  0  0  0
   -4.0193   -0.1633    0.0000 O   0  0  0  0  0  0  0  0  0  0  0  0
   -3.1943   -0.1633    0.0000 C   0  0  0  0  0  0  0  0  0  0  0  0
   -2.7818    0.5512    0.0000 O   0  0  0  0  0  0  0  0  0  0  0  0
   -2.7818   -0.8778    0.0000 C   0  0  1  0  0  0  0  0  0  0  0  0
   -3.1943   -1.5923    0.0000 C   0  0  0  0  0  0  0  0  0  0  0  0
   -2.7818   -2.3067    0.0000 C   0  0  0  0  0  0  0  0  0  0  0  0
   -1.9568   -2.3067    0.0000 C   0  0  0  0  0  0  0  0  0  0  0  0
   -1.5443   -1.5923    0.0000 C   0  0  0  0  0  0  0  0  0  0  0  0
   -1.9568   -0.8778    0.0000 C   0  0  0  0  0  0  0  0  0  0  0  0
   -1.5443   -0.1633    0.0000 N   0  0  0  0  0  0  0  0  0  0  0  0
   -0.7193   -0.1633    0.0000 N   0  0  0  0  0  0  0  0  0  0  0  0
   -0.3068    0.5512    0.0000 C   0  0  0  0  0  0  0  0  0  0  0  0
   -0.7193    1.2656    0.0000 O   0  0  0  0  0  0  0  0  0  0  0  0
    0.5182    0.5512    0.0000 C   0  0  0  0  0  0  0  0  0  0  0  0
    0.9307   -0.1633    0.0000 C   0  0  0  0  0  0  0  0  0  0  0  0
    0.5182   -0.8778    0.0000 C   0  0  0  0  0  0  0  0  0  0  0  0
    0.9307   -1.5923    0.0000 C   0  0  0  0  0  0  0  0  0  0  0  0
    0.5182   -2.3067    0.0000 C   0  0  0  0  0  0  0  0  0  0  0  0
   -0.3068   -2.3067    0.0000 C   0  0  0  0  0  0  0  0  0  0  0  0
   -0.7193   -1.5923    0.0000 C   0  0  0  0  0  0  0  0  0  0  0  0
   -0.3068   -0.8778    0.0000 C   0  0  0  0  0  0  0  0  0  0  0  0
    0.9307    1.2656    0.0000 C   0  0  0  0  0  0  0  0  0  0  0  0
    0.5952    2.0193    0.0000 C   0  0  0  0  0  0  0  0  0  0  0  0
    1.2083    2.5713    0.0000 S   0  0  0  0  0  0  0  0  0  0  0  0
    1.9228    2.1588    0.0000 C   0  0  0  0  0  0  0  0  0  0  0  0
    2.7074    2.4138    0.0000 C   0  0  0  0  0  0  0  0  0  0  0  0
    3.3205    1.8617    0.0000 C   0  0  0  0  0  0  0  0  0  0  0  0
    3.1489    1.0548    0.0000 C   0  0  0  0  0  0  0  0  0  0  0  0
    3.7620    0.5027    0.0000 C   0  0  0  0  0  0  0  0  0  0  0  0
    4.5467    0.7577    0.0000 N   0  0  0  0  0  0  0  0  0  0  0  0
    3.5905   -0.3042    0.0000 N   0  0  0  0  0  0  0  0  0  0  0  0
    2.3643    0.7998    0.0000 C   0  0  0  0  0  0  0  0  0  0  0  0
    1.7512    1.3519    0.0000 C   0  0  0  0  0  0  0  0  0  0  0  0
    6.6608   -0.8839    0.0000 O   0  0  0  0  0  0  0  0  0  0  0  0
    7.3752   -0.4714    0.0000 C   0  0  0  0  0  0  0  0  0  0  0  0
    8.0897   -0.8839    0.0000 O   0  0  0  0  0  0  0  0  0  0  0  0
    7.3752    0.3536    0.0000 C   0  0  0  0  0  0  0  0  0  0  0  0
    7.3752    1.1786    0.0000 F   0  0  0  0  0  0  0  0  0  0  0  0
    8.2002    0.3536    0.0000 F   0  0  0  0  0  0  0  0  0  0  0  0
    6.5502    0.3536    0.0000 F   0  0  0  0  0  0  0  0  0  0  0  0
  1  2  1  0  0  0  0
  2  3  1  0  0  0  0
  3  4  2  0  0  0  0
  5  3  1  6  0  0  0
  5  6  1  0  0  0  0
  6  7  1  0  0  0  0
  7  8  1  0  0  0  0
  8  9  1  0  0  0  0
  9 10  1  0  0  0  0
  5 10  1  0  0  0  0
 10 11  1  0  0  0  0
 11 12  1  0  0  0  0
 12 13  1  0  0  0  0
 13 14  2  0  0  0  0
 13 15  1  0  0  0  0
 15 16  1  0  0  0  0
 16 17  1  0  0  0  0
 17 18  4  0  0  0  0
 18 19  4  0  0  0  0
 19 20  4  0  0  0  0
 20 21  4  0  0  0  0
 21 22  4  0  0  0  0
 17 22  4  0  0  0  0
 15 23  1  0  0  0  0
 23 24  4  0  0  0  0
 24 25  4  0  0  0  0
 25 26  4  0  0  0  0
 26 27  4  0  0  0  0
 27 28  4  0  0  0  0
 28 29  4  0  0  0  0
 29 30  1  0  0  0  0
 30 31  2  0  0  0  0
 30 32  1  0  0  0  0
 29 33  4  0  0  0  0
 33 34  4  0  0  0  0
 23 34  4  0  0  0  0
 26 34  4  0  0  0  0
 35 36  2  0  0  0  0
 36 37  1  0  0  0  0
 36 38  1  0  0  0  0
 38 39  1  0  0  0  0
 38 40  1  0  0  0  0
 38 41  1  0  0  0  0
M  END
>  <CdId>
358882

>  <Mol Weight>
592.63

>  <Formula>
C28H31F3N4O5S

>  <cmpd_chemblid>
CHEMBL181667

>  <std_type>
Ki

>  <std_value>
310.0

>  <std_unit>
nM

>  <target_id>
CHEMBL2016

>  <target_name>
Coagulation factor IX

>  <organism>
Homo sapiens

>  <target_type>
SINGLE PROTEIN

$$$$

  Mrv0541 08052111042D          

 43 47  0  0  1  0            999 V2000
    8.6329   -2.2539    0.0000 C   0  0  0  0  0  0  0  0  0  0  0  0
    8.2204   -1.5395    0.0000 O   0  0  0  0  0  0  0  0  0  0  0  0
    7.3954   -1.5395    0.0000 C   0  0  0  0  0  0  0  0  0  0  0  0
    6.9829   -2.2539    0.0000 O   0  0  0  0  0  0  0  0  0  0  0  0
    6.9829   -0.8250    0.0000 N   0  0  0  0  0  0  0  0  0  0  0  0
    6.1579   -0.8250    0.0000 C   0  0  0  0  0  0  0  0  0  0  0  0
    5.7454   -0.1105    0.0000 C   0  0  0  0  0  0  0  0  0  0  0  0
    4.9204   -0.1105    0.0000 C   0  0  0  0  0  0  0  0  0  0  0  0
    4.5079   -0.8250    0.0000 C   0  0  0  0  0  0  0  0  0  0  0  0
    4.9204   -1.5395    0.0000 C   0  0  0  0  0  0  0  0  0  0  0  0
    5.7454   -1.5395    0.0000 C   0  0  0  0  0  0  0  0  0  0  0  0
    4.5079   -2.2539    0.0000 N   0  0  0  0  0  0  0  0  0  0  0  0
    4.9204   -2.9684    0.0000 C   0  0  0  0  0  0  0  0  0  0  0  0
    5.7454   -2.9684    0.0000 O   0  0  0  0  0  0  0  0  0  0  0  0
    4.5079   -3.6829    0.0000 C   0  0  2  0  0  0  0  0  0  0  0  0
    4.9204   -4.3974    0.0000 C   0  0  0  0  0  0  0  0  0  0  0  0
    3.6829   -3.6829    0.0000 C   0  0  0  0  0  0  0  0  0  0  0  0
    3.2704   -2.9684    0.0000 C   0  0  0  0  0  0  0  0  0  0  0  0
    2.4454   -2.9684    0.0000 C   0  0  0  0  0  0  0  0  0  0  0  0
    2.0329   -2.2539    0.0000 C   0  0  2  0  0  0  0  0  0  0  0  0
    1.2079   -2.2539    0.0000 N   0  0  0  0  0  0  0  0  0  0  0  0
    0.7954   -2.9684    0.0000 C   0  0  0  0  0  0  0  0  0  0  0  0
   -0.0296   -2.9684    0.0000 C   0  0  0  0  0  0  0  0  0  0  0  0
   -0.4421   -2.2539    0.0000 C   0  0  0  0  0  0  0  0  0  0  0  0
   -1.2671   -2.2539    0.0000 C   0  0  0  0  0  0  0  0  0  0  0  0
   -1.6796   -2.9684    0.0000 C   0  0  0  0  0  0  0  0  0  0  0  0
   -1.2671   -3.6829    0.0000 O   0  0  0  0  0  0  0  0  0  0  0  0
   -0.4421   -3.6829    0.0000 C   0  0  0  0  0  0  0  0  0  0  0  0
   -2.5046   -2.9684    0.0000 C   0  0  0  0  0  0  0  0  0  0  0  0
   -2.9171   -2.2539    0.0000 C   0  0  0  0  0  0  0  0  0  0  0  0
   -2.5046   -1.5395    0.0000 C   0  0  0  0  0  0  0  0  0  0  0  0
   -2.9171   -0.8250    0.0000 Cl  0  0  0  0  0  0  0  0  0  0  0  0
   -1.6796   -1.5395    0.0000 C   0  0  0  0  0  0  0  0  0  0  0  0
   -1.2671   -0.8250    0.0000 F   0  0  0  0  0  0  0  0  0  0  0  0
   -0.0296   -1.5395    0.0000 C   0  0  0  0  0  0  0  0  0  0  0  0
    0.7954   -1.5395    0.0000 C   0  0  0  0  0  0  0  0  0  0  0  0
    1.2079   -0.8250    0.0000 O   0  0  0  0  0  0  0  0  0  0  0  0
    2.4454   -1.5395    0.0000 C   0  0  0  0  0  0  0  0  0  0  0  0
    3.2704   -1.5395    0.0000 C   0  0  0  0  0  0  0  0  0  0  0  0
    3.6829   -0.8250    0.0000 C   0  0  0  0  0  0  0  0  0  0  0  0
    3.2704   -0.1105    0.0000 C   0  0  0  0  0  0  0  0  0  0  0  0
    2.4454   -0.1105    0.0000 C   0  0  0  0  0  0  0  0  0  0  0  0
    2.0329   -0.8250    0.0000 N   0  0  0  0  0  0  0  0  0  0  0  0
  1  2  1  0  0  0  0
  2  3  1  0  0  0  0
  3  4  2  0  0  0  0
  3  5  1  0  0  0  0
  5  6  1  0  0  0  0
  6  7  4  0  0  0  0
  7  8  4  0  0  0  0
  8  9  4  0  0  0  0
  9 10  4  0  0  0  0
 10 11  4  0  0  0  0
  6 11  4  0  0  0  0
 10 12  1  0  0  0  0
 12 13  1  0  0  0  0
 13 14  2  0  0  0  0
 13 15  1  0  0  0  0
 15 16  1  6  0  0  0
 15 17  1  0  0  0  0
 17 18  1  0  0  0  0
 18 19  1  0  0  0  0
 19 20  1  0  0  0  0
 20 21  1  6  0  0  0
 21 22  1  0  0  0  0
 22 23  1  0  0  0  0
 23 24  1  0  0  0  0
 24 25  1  0  0  0  0
 25 26  4  0  0  0  0
 26 27  1  0  0  0  0
 27 28  1  0  0  0  0
 26 29  4  0  0  0  0
 29 30  4  0  0  0  0
 30 31  4  0  0  0  0
 31 32  1  0  0  0  0
 31 33  4  0  0  0  0
 25 33  4  0  0  0  0
 33 34  1  0  0  0  0
 24 35  2  0  0  0  0
 35 36  1  0  0  0  0
 21 36  1  0  0  0  0
 36 37  2  0  0  0  0
 20 38  1  0  0  0  0
 38 39  4  0  0  0  0
 39 40  4  0  0  0  0
  9 40  1  0  0  0  0
 40 41  4  0  0  0  0
 41 42  4  0  0  0  0
 42 43  4  0  0  0  0
 38 43  4  0  0  0  0
M  END
>  <CdId>
358883

>  <Mol Weight>
607.072

>  <Formula>
C32H32ClFN4O5

>  <cmpd_chemblid>
CHEMBL4112474

>  <std_type>
Ki

>  <std_value>
0.87

>  <std_unit>
nM

>  <target_id>
CHEMBL2016

>  <target_name>
Coagulation factor IX

>  <organism>
Homo sapiens

>  <target_type>
SINGLE PROTEIN

$$$$

  Mrv0541 08052111042D          

 39 43  0  0  1  0            999 V2000
    3.9849    3.9849    0.0000 C   0  0  0  0  0  0  0  0  0  0  0  0
    4.3974    3.2704    0.0000 C   0  0  2  0  0  0  0  0  0  0  0  0
    5.2224    3.2704    0.0000 C   0  0  0  0  0  0  0  0  0  0  0  0
    5.6349    2.5559    0.0000 C   0  0  0  0  0  0  0  0  0  0  0  0
    6.4599    2.5559    0.0000 C   0  0  0  0  0  0  0  0  0  0  0  0
    6.8724    1.8414    0.0000 C   0  0  2  0  0  0  0  0  0  0  0  0
    7.6974    1.8414    0.0000 N   0  0  0  0  0  0  0  0  0  0  0  0
    8.1099    2.5559    0.0000 C   0  0  0  0  0  0  0  0  0  0  0  0
    8.9349    2.5559    0.0000 C   0  0  0  0  0  0  0  0  0  0  0  0
    9.3474    1.8414    0.0000 C   0  0  0  0  0  0  0  0  0  0  0  0
   10.1724    1.8414    0.0000 C   0  0  0  0  0  0  0  0  0  0  0  0
   10.5849    2.5559    0.0000 C   0  0  0  0  0  0  0  0  0  0  0  0
   10.1724    3.2704    0.0000 Br  0  0  0  0  0  0  0  0  0  0  0  0
   11.4099    2.5559    0.0000 C   0  0  0  0  0  0  0  0  0  0  0  0
   11.8224    1.8414    0.0000 C   0  0  0  0  0  0  0  0  0  0  0  0
   11.4099    1.1270    0.0000 C   0  0  0  0  0  0  0  0  0  0  0  0
   11.8224    0.4125    0.0000 Cl  0  0  0  0  0  0  0  0  0  0  0  0
   10.5849    1.1270    0.0000 C   0  0  0  0  0  0  0  0  0  0  0  0
   10.1724    0.4125    0.0000 F   0  0  0  0  0  0  0  0  0  0  0  0
    8.9349    1.1270    0.0000 C   0  0  0  0  0  0  0  0  0  0  0  0
    8.1099    1.1270    0.0000 C   0  0  0  0  0  0  0  0  0  0  0  0
    7.6974    0.4125    0.0000 O   0  0  0  0  0  0  0  0  0  0  0  0
    6.4599    1.1270    0.0000 C   0  0  0  0  0  0  0  0  0  0  0  0
    5.6349    1.1270    0.0000 C   0  0  0  0  0  0  0  0  0  0  0  0
    5.2224    0.4125    0.0000 C   0  0  0  0  0  0  0  0  0  0  0  0
    5.6349   -0.3020    0.0000 C   0  0  0  0  0  0  0  0  0  0  0  0
    6.4599   -0.3020    0.0000 C   0  0  0  0  0  0  0  0  0  0  0  0
    6.8724    0.4125    0.0000 N   0  0  0  0  0  0  0  0  0  0  0  0
    4.3974    0.4125    0.0000 C   0  0  0  0  0  0  0  0  0  0  0  0
    3.9849   -0.3020    0.0000 C   0  0  0  0  0  0  0  0  0  0  0  0
    4.3974   -1.0164    0.0000 F   0  0  0  0  0  0  0  0  0  0  0  0
    3.1599   -0.3020    0.0000 C   0  0  0  0  0  0  0  0  0  0  0  0
    2.7474    0.4125    0.0000 C   0  0  0  0  0  0  0  0  0  0  0  0
    1.9224    0.4125    0.0000 F   0  0  0  0  0  0  0  0  0  0  0  0
    3.1599    1.1270    0.0000 C   0  0  0  0  0  0  0  0  0  0  0  0
    3.9849    1.1270    0.0000 C   0  0  0  0  0  0  0  0  0  0  0  0
    4.3974    1.8414    0.0000 N   0  0  0  0  0  0  0  0  0  0  0  0
    3.9849    2.5559    0.0000 C   0  0  0  0  0  0  0  0  0  0  0  0
    3.1599    2.5559    0.0000 O   0  0  0  0  0  0  0  0  0  0  0  0
  2  1  1  6  0  0  0
  2  3  1  0  0  0  0
  3  4  1  0  0  0  0
  4  5  1  0  0  0  0
  5  6  1  0  0  0  0
  6  7  1  6  0  0  0
  7  8  1  0  0  0  0
  8  9  1  0  0  0  0
  9 10  1  0  0  0  0
 10 11  1  0  0  0  0
 11 12  4  0  0  0  0
 12 13  1  0  0  0  0
 12 14  4  0  0  0  0
 14 15  4  0  0  0  0
 15 16  4  0  0  0  0
 16 17  1  0  0  0  0
 16 18  4  0  0  0  0
 11 18  4  0  0  0  0
 18 19  1  0  0  0  0
 10 20  2  0  0  0  0
 20 21  1  0  0  0  0
  7 21  1  0  0  0  0
 21 22  2  0  0  0  0
  6 23  1  0  0  0  0
 23 24  4  0  0  0  0
 24 25  4  0  0  0  0
 25 26  4  0  0  0  0
 26 27  4  0  0  0  0
 27 28  4  0  0  0  0
 23 28  4  0  0  0  0
 25 29  1  0  0  0  0
 29 30  4  0  0  0  0
 30 31  1  0  0  0  0
 30 32  4  0  0  0  0
 32 33  4  0  0  0  0
 33 34  1  0  0  0  0
 33 35  4  0  0  0  0
 35 36  4  0  0  0  0
 29 36  4  0  0  0  0
 36 37  1  0  0  0  0
 37 38  1  0  0  0  0
  2 38  1  0  0  0  0
 38 39  2  0  0  0  0
M  END
>  <CdId>
358884

>  <Mol Weight>
618.872

>  <Formula>
C29H24BrClF3N3O2

>  <cmpd_chemblid>
CHEMBL4106971

>  <std_type>
Ki

>  <std_value>
8.56

>  <std_unit>
nM

>  <target_id>
CHEMBL2016

>  <target_name>
Coagulation factor IX

>  <organism>
Homo sapiens

>  <target_type>
SINGLE PROTEIN

$$$$

  Mrv0541 08052111042D          

 27 30  0  0  0  0            999 V2000
   -0.5837   -1.4124    0.0000 N   0  0  0  0  0  0  0  0  0  0  0  0
   -0.1712   -0.6979    0.0000 C   0  0  0  0  0  0  0  0  0  0  0  0
   -0.5837    0.0165    0.0000 N   0  0  0  0  0  0  0  0  0  0  0  0
    0.6538   -0.6979    0.0000 C   0  0  0  0  0  0  0  0  0  0  0  0
    1.1387   -0.0305    0.0000 C   0  0  0  0  0  0  0  0  0  0  0  0
    1.9233   -0.2854    0.0000 C   0  0  0  0  0  0  0  0  0  0  0  0
    2.6378    0.1271    0.0000 C   0  0  0  0  0  0  0  0  0  0  0  0
    3.3523   -0.2854    0.0000 C   0  0  0  0  0  0  0  0  0  0  0  0
    4.0668    0.1271    0.0000 C   0  0  0  0  0  0  0  0  0  0  0  0
    4.0668    0.9521    0.0000 C   0  0  0  0  0  0  0  0  0  0  0  0
    4.7812    1.3646    0.0000 C   0  0  0  0  0  0  0  0  0  0  0  0
    5.4957    0.9521    0.0000 C   0  0  0  0  0  0  0  0  0  0  0  0
    5.4957    0.1271    0.0000 C   0  0  0  0  0  0  0  0  0  0  0  0
    6.2102   -0.2854    0.0000 O   0  0  0  0  0  0  0  0  0  0  0  0
    6.9246    0.1271    0.0000 C   0  0  0  0  0  0  0  0  0  0  0  0
    7.6391   -0.2854    0.0000 C   0  0  0  0  0  0  0  0  0  0  0  0
    8.3536    0.1271    0.0000 C   0  0  0  0  0  0  0  0  0  0  0  0
    9.0681   -0.2854    0.0000 C   0  0  0  0  0  0  0  0  0  0  0  0
    9.0681   -1.1104    0.0000 C   0  0  0  0  0  0  0  0  0  0  0  0
    9.7825   -1.5229    0.0000 F   0  0  0  0  0  0  0  0  0  0  0  0
    8.3536   -1.5229    0.0000 C   0  0  0  0  0  0  0  0  0  0  0  0
    7.6391   -1.1104    0.0000 C   0  0  0  0  0  0  0  0  0  0  0  0
    4.7812   -0.2854    0.0000 C   0  0  0  0  0  0  0  0  0  0  0  0
    3.3523   -1.1104    0.0000 C   0  0  0  0  0  0  0  0  0  0  0  0
    2.6378   -1.5229    0.0000 C   0  0  0  0  0  0  0  0  0  0  0  0
    1.9233   -1.1104    0.0000 C   0  0  0  0  0  0  0  0  0  0  0  0
    1.1387   -1.3654    0.0000 S   0  0  0  0  0  0  0  0  0  0  0  0
  1  2  2  0  0  0  0
  2  3  1  0  0  0  0
  2  4  1  0  0  0  0
  4  5  4  0  0  0  0
  5  6  4  0  0  0  0
  6  7  4  0  0  0  0
  7  8  4  0  0  0  0
  8  9  1  0  0  0  0
  9 10  4  0  0  0  0
 10 11  4  0  0  0  0
 11 12  4  0  0  0  0
 12 13  4  0  0  0  0
 13 14  1  0  0  0  0
 14 15  1  0  0  0  0
 15 16  1  0  0  0  0
 16 17  4  0  0  0  0
 17 18  4  0  0  0  0
 18 19  4  0  0  0  0
 19 20  1  0  0  0  0
 19 21  4  0  0  0  0
 21 22  4  0  0  0  0
 16 22  4  0  0  0  0
 13 23  4  0  0  0  0
  9 23  4  0  0  0  0
  8 24  4  0  0  0  0
 24 25  4  0  0  0  0
 25 26  4  0  0  0  0
  6 26  4  0  0  0  0
 26 27  4  0  0  0  0
  4 27  4  0  0  0  0
M  END
>  <CdId>
358886

>  <Mol Weight>
376.447

>  <Formula>
C22H17FN2OS

>  <cmpd_chemblid>
CHEMBL598178

>  <std_type>
Ki

>  <std_value>
700.0

>  <std_unit>
nM

>  <target_id>
CHEMBL2016

>  <target_name>
Coagulation factor IX

>  <organism>
Homo sapiens

>  <target_type>
SINGLE PROTEIN

$$$$

  Mrv0541 08052111042D          

 38 43  0  0  1  0            999 V2000
   -1.4066   -1.6301    0.0000 C   0  0  0  0  0  0  0  0  0  0  0  0
   -0.5996   -1.8016    0.0000 C   0  0  0  0  0  0  0  0  0  0  0  0
   -0.3446   -2.5862    0.0000 C   0  0  0  0  0  0  0  0  0  0  0  0
    0.4623   -2.7578    0.0000 C   0  0  0  0  0  0  0  0  0  0  0  0
    1.0144   -2.1447    0.0000 C   0  0  0  0  0  0  0  0  0  0  0  0
    1.8394   -2.1447    0.0000 C   0  0  0  0  0  0  0  0  0  0  0  0
    2.0943   -1.3601    0.0000 C   0  0  0  0  0  0  0  0  0  0  0  0
    1.4269   -0.8751    0.0000 N   0  0  0  0  0  0  0  0  0  0  0  0
    0.7594   -1.3601    0.0000 N   0  0  0  0  0  0  0  0  0  0  0  0
   -0.0476   -1.1885    0.0000 C   0  0  0  0  0  0  0  0  0  0  0  0
    2.9013   -1.1885    0.0000 C   0  0  0  0  0  0  0  0  0  0  0  0
    3.4533   -1.8016    0.0000 C   0  0  0  0  0  0  0  0  0  0  0  0
    3.1984   -2.5862    0.0000 C   0  0  2  0  0  0  0  0  0  0  0  0
    4.0153   -2.7011    0.0000 N   0  0  0  0  0  0  0  0  0  0  0  0
    4.5233   -2.0510    0.0000 C   0  0  0  0  0  0  0  0  0  0  0  0
    4.2142   -1.2860    0.0000 O   0  0  0  0  0  0  0  0  0  0  0  0
    5.3402   -2.1658    0.0000 C   0  0  0  0  0  0  0  0  0  0  0  0
    5.8481   -1.5157    0.0000 C   0  0  0  0  0  0  0  0  0  0  0  0
    5.5391   -0.7507    0.0000 Cl  0  0  0  0  0  0  0  0  0  0  0  0
    6.6651   -1.6305    0.0000 C   0  0  0  0  0  0  0  0  0  0  0  0
    6.9742   -2.3954    0.0000 C   0  0  0  0  0  0  0  0  0  0  0  0
    7.7911   -2.5102    0.0000 N   0  0  0  0  0  0  0  0  0  0  0  0
    8.3642   -1.9168    0.0000 C   0  0  0  0  0  0  0  0  0  0  0  0
    9.1057   -2.2784    0.0000 N   0  0  0  0  0  0  0  0  0  0  0  0
    8.9909   -3.0954    0.0000 C   0  0  0  0  0  0  0  0  0  0  0  0
    9.5844   -3.6685    0.0000 C   0  0  0  0  0  0  0  0  0  0  0  0
    8.1785   -3.2387    0.0000 N   0  0  0  0  0  0  0  0  0  0  0  0
    6.4662   -3.0455    0.0000 C   0  0  0  0  0  0  0  0  0  0  0  0
    5.6493   -2.9307    0.0000 C   0  0  0  0  0  0  0  0  0  0  0  0
    5.1414   -3.5808    0.0000 Cl  0  0  0  0  0  0  0  0  0  0  0  0
    3.2272   -3.4107    0.0000 C   0  0  0  0  0  0  0  0  0  0  0  0
    3.9556   -3.7981    0.0000 C   0  0  0  0  0  0  0  0  0  0  0  0
    3.9844   -4.6226    0.0000 C   0  0  0  0  0  0  0  0  0  0  0  0
    3.2847   -5.0597    0.0000 C   0  0  0  0  0  0  0  0  0  0  0  0
    2.5563   -4.6724    0.0000 C   0  0  0  0  0  0  0  0  0  0  0  0
    1.8567   -5.1096    0.0000 Cl  0  0  0  0  0  0  0  0  0  0  0  0
    2.5275   -3.8479    0.0000 C   0  0  0  0  0  0  0  0  0  0  0  0
    2.3914   -2.7578    0.0000 C   0  0  0  0  0  0  0  0  0  0  0  0
  1  2  1  0  0  0  0
  2  3  4  0  0  0  0
  3  4  4  0  0  0  0
  4  5  4  0  0  0  0
  5  6  4  0  0  0  0
  6  7  4  0  0  0  0
  7  8  4  0  0  0  0
  8  9  4  0  0  0  0
  5  9  4  0  0  0  0
  9 10  4  0  0  0  0
  2 10  4  0  0  0  0
  7 11  1  0  0  0  0
 11 12  1  0  0  0  0
 12 13  1  0  0  0  0
 13 14  1  1  0  0  0
 14 15  1  0  0  0  0
 15 16  2  0  0  0  0
 15 17  1  0  0  0  0
 17 18  4  0  0  0  0
 18 19  1  0  0  0  0
 18 20  4  0  0  0  0
 20 21  4  0  0  0  0
 21 22  1  0  0  0  0
 22 23  4  0  0  0  0
 23 24  4  0  0  0  0
 24 25  4  0  0  0  0
 25 26  1  0  0  0  0
 25 27  4  0  0  0  0
 22 27  4  0  0  0  0
 21 28  4  0  0  0  0
 28 29  4  0  0  0  0
 17 29  4  0  0  0  0
 29 30  1  0  0  0  0
 13 31  1  6  0  0  0
 31 32  4  0  0  0  0
 32 33  4  0  0  0  0
 33 34  4  0  0  0  0
 34 35  4  0  0  0  0
 35 36  1  0  0  0  0
 35 37  4  0  0  0  0
 31 37  4  0  0  0  0
 13 38  1  0  0  0  0
  6 38  1  0  0  0  0
M  END
>  <CdId>
358887

>  <Mol Weight>
565.881

>  <Formula>
C28H23Cl3N6O

>  <cmpd_chemblid>
CHEMBL3628949

>  <std_type>
Ki

>  <std_value>
3.1

>  <std_unit>
nM

>  <target_id>
CHEMBL2016

>  <target_name>
Coagulation factor IX

>  <organism>
Homo sapiens

>  <target_type>
SINGLE PROTEIN

$$$$

  Mrv0541 08052111042D          

 40 44  0  0  1  0            999 V2000
    3.9849    3.9849    0.0000 C   0  0  0  0  0  0  0  0  0  0  0  0
    4.3974    3.2704    0.0000 C   0  0  2  0  0  0  0  0  0  0  0  0
    5.2224    3.2704    0.0000 C   0  0  0  0  0  0  0  0  0  0  0  0
    5.6349    2.5559    0.0000 C   0  0  0  0  0  0  0  0  0  0  0  0
    6.4599    2.5559    0.0000 C   0  0  0  0  0  0  0  0  0  0  0  0
    6.8724    1.8414    0.0000 C   0  0  2  0  0  0  0  0  0  0  0  0
    7.6974    1.8414    0.0000 N   0  0  0  0  0  0  0  0  0  0  0  0
    8.1099    2.5559    0.0000 C   0  0  0  0  0  0  0  0  0  0  0  0
    8.9349    2.5559    0.0000 C   0  0  0  0  0  0  0  0  0  0  0  0
    9.3474    1.8414    0.0000 C   0  0  0  0  0  0  0  0  0  0  0  0
   10.1724    1.8414    0.0000 C   0  0  0  0  0  0  0  0  0  0  0  0
   10.5849    2.5559    0.0000 C   0  0  0  0  0  0  0  0  0  0  0  0
   10.1724    3.2704    0.0000 C   0  0  0  0  0  0  0  0  0  0  0  0
    9.7599    3.9849    0.0000 N   0  0  0  0  0  0  0  0  0  0  0  0
   11.4099    2.5559    0.0000 C   0  0  0  0  0  0  0  0  0  0  0  0
   11.8224    1.8414    0.0000 C   0  0  0  0  0  0  0  0  0  0  0  0
   11.4099    1.1270    0.0000 C   0  0  0  0  0  0  0  0  0  0  0  0
   11.8224    0.4125    0.0000 Cl  0  0  0  0  0  0  0  0  0  0  0  0
   10.5849    1.1270    0.0000 C   0  0  0  0  0  0  0  0  0  0  0  0
   10.1724    0.4125    0.0000 F   0  0  0  0  0  0  0  0  0  0  0  0
    8.9349    1.1270    0.0000 C   0  0  0  0  0  0  0  0  0  0  0  0
    8.1099    1.1270    0.0000 C   0  0  0  0  0  0  0  0  0  0  0  0
    7.6974    0.4125    0.0000 O   0  0  0  0  0  0  0  0  0  0  0  0
    6.4599    1.1270    0.0000 C   0  0  0  0  0  0  0  0  0  0  0  0
    5.6349    1.1270    0.0000 C   0  0  0  0  0  0  0  0  0  0  0  0
    5.2224    0.4125    0.0000 C   0  0  0  0  0  0  0  0  0  0  0  0
    5.6349   -0.3020    0.0000 C   0  0  0  0  0  0  0  0  0  0  0  0
    6.4599   -0.3020    0.0000 C   0  0  0  0  0  0  0  0  0  0  0  0
    6.8724    0.4125    0.0000 N   0  0  0  0  0  0  0  0  0  0  0  0
    4.3974    0.4125    0.0000 C   0  0  0  0  0  0  0  0  0  0  0  0
    3.9849   -0.3020    0.0000 C   0  0  0  0  0  0  0  0  0  0  0  0
    4.3974   -1.0164    0.0000 F   0  0  0  0  0  0  0  0  0  0  0  0
    3.1599   -0.3020    0.0000 C   0  0  0  0  0  0  0  0  0  0  0  0
    2.7474    0.4125    0.0000 C   0  0  0  0  0  0  0  0  0  0  0  0
    1.9224    0.4125    0.0000 F   0  0  0  0  0  0  0  0  0  0  0  0
    3.1599    1.1270    0.0000 C   0  0  0  0  0  0  0  0  0  0  0  0
    3.9849    1.1270    0.0000 C   0  0  0  0  0  0  0  0  0  0  0  0
    4.3974    1.8414    0.0000 N   0  0  0  0  0  0  0  0  0  0  0  0
    3.9849    2.5559    0.0000 C   0  0  0  0  0  0  0  0  0  0  0  0
    3.1599    2.5559    0.0000 O   0  0  0  0  0  0  0  0  0  0  0  0
  2  1  1  6  0  0  0
  2  3  1  0  0  0  0
  3  4  1  0  0  0  0
  4  5  1  0  0  0  0
  5  6  1  0  0  0  0
  6  7  1  6  0  0  0
  7  8  1  0  0  0  0
  8  9  1  0  0  0  0
  9 10  1  0  0  0  0
 10 11  1  0  0  0  0
 11 12  4  0  0  0  0
 12 13  1  0  0  0  0
 13 14  3  0  0  0  0
 12 15  4  0  0  0  0
 15 16  4  0  0  0  0
 16 17  4  0  0  0  0
 17 18  1  0  0  0  0
 17 19  4  0  0  0  0
 11 19  4  0  0  0  0
 19 20  1  0  0  0  0
 10 21  2  0  0  0  0
 21 22  1  0  0  0  0
  7 22  1  0  0  0  0
 22 23  2  0  0  0  0
  6 24  1  0  0  0  0
 24 25  4  0  0  0  0
 25 26  4  0  0  0  0
 26 27  4  0  0  0  0
 27 28  4  0  0  0  0
 28 29  4  0  0  0  0
 24 29  4  0  0  0  0
 26 30  1  0  0  0  0
 30 31  4  0  0  0  0
 31 32  1  0  0  0  0
 31 33  4  0  0  0  0
 33 34  4  0  0  0  0
 34 35  1  0  0  0  0
 34 36  4  0  0  0  0
 36 37  4  0  0  0  0
 30 37  4  0  0  0  0
 37 38  1  0  0  0  0
 38 39  1  0  0  0  0
  2 39  1  0  0  0  0
 39 40  2  0  0  0  0
M  END
>  <CdId>
358888

>  <Mol Weight>
564.985

>  <Formula>
C30H24ClF3N4O2

>  <cmpd_chemblid>
CHEMBL4113815

>  <std_type>
Ki

>  <std_value>
2.75

>  <std_unit>
nM

>  <target_id>
CHEMBL2016

>  <target_name>
Coagulation factor IX

>  <organism>
Homo sapiens

>  <target_type>
SINGLE PROTEIN

$$$$

  Mrv0541 08052111042D          

 42 46  0  0  1  0            999 V2000
    8.3102   -2.3717    0.0000 C   0  0  0  0  0  0  0  0  0  0  0  0
    7.9481   -1.6304    0.0000 O   0  0  0  0  0  0  0  0  0  0  0  0
    7.1251   -1.5734    0.0000 C   0  0  0  0  0  0  0  0  0  0  0  0
    6.6642   -2.2577    0.0000 O   0  0  0  0  0  0  0  0  0  0  0  0
    6.7629   -0.8321    0.0000 N   0  0  0  0  0  0  0  0  0  0  0  0
    5.9399   -0.7751    0.0000 C   0  0  0  0  0  0  0  0  0  0  0  0
    5.5778   -0.0339    0.0000 C   0  0  0  0  0  0  0  0  0  0  0  0
    4.7547    0.0231    0.0000 C   0  0  0  0  0  0  0  0  0  0  0  0
    4.2938   -0.6611    0.0000 C   0  0  0  0  0  0  0  0  0  0  0  0
    4.6560   -1.4024    0.0000 C   0  0  0  0  0  0  0  0  0  0  0  0
    5.4790   -1.4594    0.0000 C   0  0  0  0  0  0  0  0  0  0  0  0
    4.1951   -2.0867    0.0000 N   0  0  0  0  0  0  0  0  0  0  0  0
    4.5573   -2.8279    0.0000 C   0  0  0  0  0  0  0  0  0  0  0  0
    5.3803   -2.8849    0.0000 O   0  0  0  0  0  0  0  0  0  0  0  0
    4.0964   -3.5122    0.0000 C   0  0  2  0  0  0  0  0  0  0  0  0
    4.4585   -4.2534    0.0000 C   0  0  0  0  0  0  0  0  0  0  0  0
    3.2733   -3.4552    0.0000 C   0  0  0  0  0  0  0  0  0  0  0  0
    2.9112   -2.7139    0.0000 C   0  0  0  0  0  0  0  0  0  0  0  0
    2.0882   -2.6569    0.0000 C   0  0  0  0  0  0  0  0  0  0  0  0
    1.7260   -1.9156    0.0000 C   0  0  2  0  0  0  0  0  0  0  0  0
    0.9030   -1.8586    0.0000 N   0  0  0  0  0  0  0  0  0  0  0  0
    0.4421   -2.5429    0.0000 C   0  0  0  0  0  0  0  0  0  0  0  0
   -0.3809   -2.4859    0.0000 C   0  0  0  0  0  0  0  0  0  0  0  0
   -0.7431   -1.7446    0.0000 C   0  0  0  0  0  0  0  0  0  0  0  0
   -1.5661   -1.6876    0.0000 C   0  0  0  0  0  0  0  0  0  0  0  0
   -2.0270   -2.3719    0.0000 C   0  0  0  0  0  0  0  0  0  0  0  0
   -1.6648   -3.1131    0.0000 F   0  0  0  0  0  0  0  0  0  0  0  0
   -2.8500   -2.3148    0.0000 C   0  0  0  0  0  0  0  0  0  0  0  0
   -3.2121   -1.5736    0.0000 C   0  0  0  0  0  0  0  0  0  0  0  0
   -2.7513   -0.8893    0.0000 C   0  0  0  0  0  0  0  0  0  0  0  0
   -3.1134   -0.1481    0.0000 Cl  0  0  0  0  0  0  0  0  0  0  0  0
   -1.9282   -0.9463    0.0000 C   0  0  0  0  0  0  0  0  0  0  0  0
   -1.4673   -0.2621    0.0000 F   0  0  0  0  0  0  0  0  0  0  0  0
   -0.2822   -1.0603    0.0000 C   0  0  0  0  0  0  0  0  0  0  0  0
    0.5409   -1.1174    0.0000 C   0  0  0  0  0  0  0  0  0  0  0  0
    1.0017   -0.4331    0.0000 O   0  0  0  0  0  0  0  0  0  0  0  0
    2.1869   -1.2314    0.0000 C   0  0  0  0  0  0  0  0  0  0  0  0
    3.0099   -1.2884    0.0000 N   0  0  0  0  0  0  0  0  0  0  0  0
    3.4708   -0.6041    0.0000 C   0  0  0  0  0  0  0  0  0  0  0  0
    2.8128   -0.0523    0.0000 C   0  0  0  0  0  0  0  0  0  0  0  0
    2.9130    0.7666    0.0000 C   0  0  0  0  0  0  0  0  0  0  0  0
    2.0716   -0.4145    0.0000 N   0  0  0  0  0  0  0  0  0  0  0  0
  1  2  1  0  0  0  0
  2  3  1  0  0  0  0
  3  4  2  0  0  0  0
  3  5  1  0  0  0  0
  5  6  1  0  0  0  0
  6  7  4  0  0  0  0
  7  8  4  0  0  0  0
  8  9  4  0  0  0  0
  9 10  4  0  0  0  0
 10 11  4  0  0  0  0
  6 11  4  0  0  0  0
 10 12  1  0  0  0  0
 12 13  1  0  0  0  0
 13 14  2  0  0  0  0
 13 15  1  0  0  0  0
 15 16  1  6  0  0  0
 15 17  1  0  0  0  0
 17 18  1  0  0  0  0
 18 19  1  0  0  0  0
 19 20  1  0  0  0  0
 20 21  1  6  0  0  0
 21 22  1  0  0  0  0
 22 23  1  0  0  0  0
 23 24  1  0  0  0  0
 24 25  1  0  0  0  0
 25 26  4  0  0  0  0
 26 27  1  0  0  0  0
 26 28  4  0  0  0  0
 28 29  4  0  0  0  0
 29 30  4  0  0  0  0
 30 31  1  0  0  0  0
 30 32  4  0  0  0  0
 25 32  4  0  0  0  0
 32 33  1  0  0  0  0
 24 34  2  0  0  0  0
 34 35  1  0  0  0  0
 21 35  1  0  0  0  0
 35 36  2  0  0  0  0
 20 37  1  0  0  0  0
 37 38  4  0  0  0  0
 38 39  4  0  0  0  0
  9 39  1  0  0  0  0
 39 40  4  0  0  0  0
 40 41  1  0  0  0  0
 40 42  4  0  0  0  0
 37 42  4  0  0  0  0
M  STY  1   1 DAT
M  SAL   1  1  42
M  SDT   1 MRV_IMPLICIT_H                                        
M  SDD   1     0.0000    0.0000    DR    ALL  0       0  
M  SED   1 IMPL_H1
M  END
>  <CdId>
358889

>  <Mol Weight>
598.04

>  <Formula>
C30H30ClF2N5O4

>  <cmpd_chemblid>
CHEMBL4112648

>  <std_type>
Ki

>  <std_value>
0.2

>  <std_unit>
nM

>  <target_id>
CHEMBL2016

>  <target_name>
Coagulation factor IX

>  <organism>
Homo sapiens

>  <target_type>
SINGLE PROTEIN

$$$$

  Mrv0541 08052111042D          

 44 49  0  0  1  0            999 V2000
    9.1411   -2.7682    0.0000 C   0  0  0  0  0  0  0  0  0  0  0  0
    8.3874   -2.4327    0.0000 C   0  0  0  0  0  0  0  0  0  0  0  0
    7.6729   -2.8452    0.0000 N   0  0  0  0  0  0  0  0  0  0  0  0
    7.0598   -2.2931    0.0000 N   0  0  0  0  0  0  0  0  0  0  0  0
    7.3954   -1.5395    0.0000 C   0  0  0  0  0  0  0  0  0  0  0  0
    6.9829   -0.8250    0.0000 N   0  0  0  0  0  0  0  0  0  0  0  0
    6.1579   -0.8250    0.0000 C   0  0  0  0  0  0  0  0  0  0  0  0
    5.7454   -0.1105    0.0000 C   0  0  0  0  0  0  0  0  0  0  0  0
    4.9204   -0.1105    0.0000 C   0  0  0  0  0  0  0  0  0  0  0  0
    4.5079   -0.8250    0.0000 C   0  0  0  0  0  0  0  0  0  0  0  0
    4.9204   -1.5395    0.0000 C   0  0  0  0  0  0  0  0  0  0  0  0
    5.7454   -1.5395    0.0000 C   0  0  0  0  0  0  0  0  0  0  0  0
    4.5079   -2.2539    0.0000 N   0  0  0  0  0  0  0  0  0  0  0  0
    4.9204   -2.9684    0.0000 C   0  0  0  0  0  0  0  0  0  0  0  0
    5.7454   -2.9684    0.0000 O   0  0  0  0  0  0  0  0  0  0  0  0
    4.5079   -3.6829    0.0000 C   0  0  2  0  0  0  0  0  0  0  0  0
    4.9204   -4.3974    0.0000 C   0  0  0  0  0  0  0  0  0  0  0  0
    3.6829   -3.6829    0.0000 C   0  0  0  0  0  0  0  0  0  0  0  0
    3.2704   -2.9684    0.0000 C   0  0  0  0  0  0  0  0  0  0  0  0
    2.4454   -2.9684    0.0000 C   0  0  0  0  0  0  0  0  0  0  0  0
    2.0329   -2.2539    0.0000 C   0  0  2  0  0  0  0  0  0  0  0  0
    1.2079   -2.2539    0.0000 N   0  0  0  0  0  0  0  0  0  0  0  0
    0.7954   -2.9684    0.0000 C   0  0  0  0  0  0  0  0  0  0  0  0
   -0.0296   -2.9684    0.0000 C   0  0  0  0  0  0  0  0  0  0  0  0
   -0.4421   -2.2539    0.0000 C   0  0  0  0  0  0  0  0  0  0  0  0
   -1.2671   -2.2539    0.0000 C   0  0  0  0  0  0  0  0  0  0  0  0
   -1.6796   -2.9684    0.0000 C   0  0  0  0  0  0  0  0  0  0  0  0
   -1.2671   -3.6829    0.0000 F   0  0  0  0  0  0  0  0  0  0  0  0
   -2.5046   -2.9684    0.0000 C   0  0  0  0  0  0  0  0  0  0  0  0
   -2.9171   -2.2539    0.0000 C   0  0  0  0  0  0  0  0  0  0  0  0
   -2.5046   -1.5395    0.0000 C   0  0  0  0  0  0  0  0  0  0  0  0
   -2.9171   -0.8250    0.0000 Cl  0  0  0  0  0  0  0  0  0  0  0  0
   -1.6796   -1.5395    0.0000 C   0  0  0  0  0  0  0  0  0  0  0  0
   -1.2671   -0.8250    0.0000 F   0  0  0  0  0  0  0  0  0  0  0  0
   -0.0296   -1.5395    0.0000 C   0  0  0  0  0  0  0  0  0  0  0  0
    0.7954   -1.5395    0.0000 C   0  0  0  0  0  0  0  0  0  0  0  0
    1.2079   -0.8250    0.0000 O   0  0  0  0  0  0  0  0  0  0  0  0
    2.4454   -1.5395    0.0000 C   0  0  0  0  0  0  0  0  0  0  0  0
    3.2704   -1.5395    0.0000 C   0  0  0  0  0  0  0  0  0  0  0  0
    3.6829   -0.8250    0.0000 C   0  0  0  0  0  0  0  0  0  0  0  0
    3.2704   -0.1105    0.0000 C   0  0  0  0  0  0  0  0  0  0  0  0
    2.4454   -0.1105    0.0000 C   0  0  0  0  0  0  0  0  0  0  0  0
    2.0329   -0.8250    0.0000 N   0  0  0  0  0  0  0  0  0  0  0  0
    8.2159   -1.6257    0.0000 O   0  0  0  0  0  0  0  0  0  0  0  0
  1  2  1  0  0  0  0
  2  3  4  0  0  0  0
  3  4  4  0  0  0  0
  4  5  4  0  0  0  0
  5  6  1  0  0  0  0
  6  7  1  0  0  0  0
  7  8  4  0  0  0  0
  8  9  4  0  0  0  0
  9 10  4  0  0  0  0
 10 11  4  0  0  0  0
 11 12  4  0  0  0  0
  7 12  4  0  0  0  0
 11 13  1  0  0  0  0
 13 14  1  0  0  0  0
 14 15  2  0  0  0  0
 14 16  1  0  0  0  0
 16 17  1  6  0  0  0
 16 18  1  0  0  0  0
 18 19  1  0  0  0  0
 19 20  1  0  0  0  0
 20 21  1  0  0  0  0
 21 22  1  6  0  0  0
 22 23  1  0  0  0  0
 23 24  1  0  0  0  0
 24 25  1  0  0  0  0
 25 26  1  0  0  0  0
 26 27  4  0  0  0  0
 27 28  1  0  0  0  0
 27 29  4  0  0  0  0
 29 30  4  0  0  0  0
 30 31  4  0  0  0  0
 31 32  1  0  0  0  0
 31 33  4  0  0  0  0
 26 33  4  0  0  0  0
 33 34  1  0  0  0  0
 25 35  2  0  0  0  0
 35 36  1  0  0  0  0
 22 36  1  0  0  0  0
 36 37  2  0  0  0  0
 21 38  1  0  0  0  0
 38 39  4  0  0  0  0
 39 40  4  0  0  0  0
 10 40  1  0  0  0  0
 40 41  4  0  0  0  0
 41 42  4  0  0  0  0
 42 43  4  0  0  0  0
 38 43  4  0  0  0  0
  5 44  4  0  0  0  0
  2 44  4  0  0  0  0
M  END
>  <CdId>
358890

>  <Mol Weight>
619.061

>  <Formula>
C32H29ClF2N6O3

>  <cmpd_chemblid>
CHEMBL4112597

>  <std_type>
Ki

>  <std_value>
0.46

>  <std_unit>
nM

>  <target_id>
CHEMBL2016

>  <target_name>
Coagulation factor IX

>  <organism>
Homo sapiens

>  <target_type>
SINGLE PROTEIN

$$$$

  Mrv0541 08052111042D          

 41 45  0  0  1  0            999 V2000
    8.6329   -2.2539    0.0000 C   0  0  0  0  0  0  0  0  0  0  0  0
    8.2204   -1.5395    0.0000 O   0  0  0  0  0  0  0  0  0  0  0  0
    7.3954   -1.5395    0.0000 C   0  0  0  0  0  0  0  0  0  0  0  0
    6.9829   -2.2539    0.0000 O   0  0  0  0  0  0  0  0  0  0  0  0
    6.9829   -0.8250    0.0000 N   0  0  0  0  0  0  0  0  0  0  0  0
    6.1579   -0.8250    0.0000 C   0  0  0  0  0  0  0  0  0  0  0  0
    5.7454   -0.1105    0.0000 C   0  0  0  0  0  0  0  0  0  0  0  0
    4.9204   -0.1105    0.0000 C   0  0  0  0  0  0  0  0  0  0  0  0
    4.5079   -0.8250    0.0000 C   0  0  0  0  0  0  0  0  0  0  0  0
    4.9204   -1.5395    0.0000 C   0  0  0  0  0  0  0  0  0  0  0  0
    5.7454   -1.5395    0.0000 C   0  0  0  0  0  0  0  0  0  0  0  0
    4.5079   -2.2539    0.0000 N   0  0  0  0  0  0  0  0  0  0  0  0
    4.9204   -2.9684    0.0000 C   0  0  0  0  0  0  0  0  0  0  0  0
    5.7454   -2.9684    0.0000 O   0  0  0  0  0  0  0  0  0  0  0  0
    4.5079   -3.6829    0.0000 C   0  0  2  0  0  0  0  0  0  0  0  0
    4.9204   -4.3974    0.0000 C   0  0  0  0  0  0  0  0  0  0  0  0
    3.6829   -3.6829    0.0000 C   0  0  0  0  0  0  0  0  0  0  0  0
    3.2704   -2.9684    0.0000 C   0  0  0  0  0  0  0  0  0  0  0  0
    2.4454   -2.9684    0.0000 C   0  0  0  0  0  0  0  0  0  0  0  0
    2.0329   -2.2539    0.0000 C   0  0  2  0  0  0  0  0  0  0  0  0
    1.2079   -2.2539    0.0000 N   0  0  0  0  0  0  0  0  0  0  0  0
    0.7954   -2.9684    0.0000 C   0  0  0  0  0  0  0  0  0  0  0  0
   -0.0296   -2.9684    0.0000 C   0  0  0  0  0  0  0  0  0  0  0  0
   -0.4421   -2.2539    0.0000 C   0  0  0  0  0  0  0  0  0  0  0  0
   -1.2671   -2.2539    0.0000 C   0  0  0  0  0  0  0  0  0  0  0  0
   -1.6796   -2.9684    0.0000 N   0  0  0  0  0  0  0  0  0  0  0  0
   -2.5046   -2.9684    0.0000 C   0  0  0  0  0  0  0  0  0  0  0  0
   -2.9171   -2.2539    0.0000 C   0  0  0  0  0  0  0  0  0  0  0  0
   -2.5046   -1.5395    0.0000 C   0  0  0  0  0  0  0  0  0  0  0  0
   -2.9171   -0.8250    0.0000 Cl  0  0  0  0  0  0  0  0  0  0  0  0
   -1.6796   -1.5395    0.0000 C   0  0  0  0  0  0  0  0  0  0  0  0
   -1.2671   -0.8250    0.0000 F   0  0  0  0  0  0  0  0  0  0  0  0
   -0.0296   -1.5395    0.0000 C   0  0  0  0  0  0  0  0  0  0  0  0
    0.7954   -1.5395    0.0000 C   0  0  0  0  0  0  0  0  0  0  0  0
    1.2079   -0.8250    0.0000 O   0  0  0  0  0  0  0  0  0  0  0  0
    2.4454   -1.5395    0.0000 C   0  0  0  0  0  0  0  0  0  0  0  0
    3.2704   -1.5395    0.0000 C   0  0  0  0  0  0  0  0  0  0  0  0
    3.6829   -0.8250    0.0000 C   0  0  0  0  0  0  0  0  0  0  0  0
    3.2704   -0.1105    0.0000 C   0  0  0  0  0  0  0  0  0  0  0  0
    2.4454   -0.1105    0.0000 C   0  0  0  0  0  0  0  0  0  0  0  0
    2.0329   -0.8250    0.0000 N   0  0  0  0  0  0  0  0  0  0  0  0
  1  2  1  0  0  0  0
  2  3  1  0  0  0  0
  3  4  2  0  0  0  0
  3  5  1  0  0  0  0
  5  6  1  0  0  0  0
  6  7  4  0  0  0  0
  7  8  4  0  0  0  0
  8  9  4  0  0  0  0
  9 10  4  0  0  0  0
 10 11  4  0  0  0  0
  6 11  4  0  0  0  0
 10 12  1  0  0  0  0
 12 13  1  0  0  0  0
 13 14  2  0  0  0  0
 13 15  1  0  0  0  0
 15 16  1  6  0  0  0
 15 17  1  0  0  0  0
 17 18  1  0  0  0  0
 18 19  1  0  0  0  0
 19 20  1  0  0  0  0
 20 21  1  6  0  0  0
 21 22  1  0  0  0  0
 22 23  1  0  0  0  0
 23 24  1  0  0  0  0
 24 25  1  0  0  0  0
 25 26  4  0  0  0  0
 26 27  4  0  0  0  0
 27 28  4  0  0  0  0
 28 29  4  0  0  0  0
 29 30  1  0  0  0  0
 29 31  4  0  0  0  0
 25 31  4  0  0  0  0
 31 32  1  0  0  0  0
 24 33  2  0  0  0  0
 33 34  1  0  0  0  0
 21 34  1  0  0  0  0
 34 35  2  0  0  0  0
 20 36  1  0  0  0  0
 36 37  4  0  0  0  0
 37 38  4  0  0  0  0
  9 38  1  0  0  0  0
 38 39  4  0  0  0  0
 39 40  4  0  0  0  0
 40 41  4  0  0  0  0
 36 41  4  0  0  0  0
M  END
>  <CdId>
358891

>  <Mol Weight>
578.034

>  <Formula>
C30H29ClFN5O4

>  <cmpd_chemblid>
CHEMBL4110103

>  <std_type>
Ki

>  <std_value>
0.92

>  <std_unit>
nM

>  <target_id>
CHEMBL2016

>  <target_name>
Coagulation factor IX

>  <organism>
Homo sapiens

>  <target_type>
SINGLE PROTEIN

$$$$

  Mrv0541 08052111042D          

 39 43  0  0  0  0            999 V2000
    4.2010   -5.1401    0.0000 N   0  0  0  0  0  0  0  0  0  0  0  0
    3.3760   -5.1401    0.0000 C   0  0  0  0  0  0  0  0  0  0  0  0
    2.9635   -4.4256    0.0000 N   0  0  0  0  0  0  0  0  0  0  0  0
    2.9635   -5.8546    0.0000 C   0  0  0  0  0  0  0  0  0  0  0  0
    3.3760   -6.5690    0.0000 C   0  0  0  0  0  0  0  0  0  0  0  0
    2.9635   -7.2835    0.0000 C   0  0  0  0  0  0  0  0  0  0  0  0
    2.1385   -7.2835    0.0000 C   0  0  0  0  0  0  0  0  0  0  0  0
    1.7260   -6.5690    0.0000 C   0  0  0  0  0  0  0  0  0  0  0  0
    0.9010   -6.5690    0.0000 N   0  0  0  0  0  0  0  0  0  0  0  0
    0.4161   -7.2365    0.0000 N   0  0  0  0  0  0  0  0  0  0  0  0
   -0.3686   -6.9815    0.0000 C   0  0  0  0  0  0  0  0  0  0  0  0
   -1.0360   -7.4664    0.0000 C   0  0  0  0  0  0  0  0  0  0  0  0
   -1.7034   -7.9514    0.0000 F   0  0  0  0  0  0  0  0  0  0  0  0
   -1.5209   -6.7990    0.0000 F   0  0  0  0  0  0  0  0  0  0  0  0
   -0.5511   -8.1339    0.0000 F   0  0  0  0  0  0  0  0  0  0  0  0
   -0.3686   -6.1565    0.0000 C   0  0  0  0  0  0  0  0  0  0  0  0
    0.4161   -5.9016    0.0000 C   0  0  0  0  0  0  0  0  0  0  0  0
    0.6710   -5.1170    0.0000 C   0  0  0  0  0  0  0  0  0  0  0  0
    1.4780   -4.9454    0.0000 O   0  0  0  0  0  0  0  0  0  0  0  0
    0.1190   -4.5039    0.0000 N   0  0  0  0  0  0  0  0  0  0  0  0
    0.3739   -3.7192    0.0000 C   0  0  0  0  0  0  0  0  0  0  0  0
   -0.1781   -3.1062    0.0000 C   0  0  0  0  0  0  0  0  0  0  0  0
    0.0768   -2.3215    0.0000 C   0  0  0  0  0  0  0  0  0  0  0  0
    0.8838   -2.1500    0.0000 C   0  0  0  0  0  0  0  0  0  0  0  0
    1.1387   -1.3654    0.0000 N   0  0  0  0  0  0  0  0  0  0  0  0
    0.6538   -0.6979    0.0000 C   0  0  0  0  0  0  0  0  0  0  0  0
    1.1387   -0.0305    0.0000 N   0  0  0  0  0  0  0  0  0  0  0  0
    1.9233   -0.2854    0.0000 C   0  0  0  0  0  0  0  0  0  0  0  0
    2.6378    0.1271    0.0000 C   0  0  0  0  0  0  0  0  0  0  0  0
    3.3523   -0.2854    0.0000 C   0  0  0  0  0  0  0  0  0  0  0  0
    4.0668    0.1271    0.0000 Cl  0  0  0  0  0  0  0  0  0  0  0  0
    3.3523   -1.1104    0.0000 C   0  0  0  0  0  0  0  0  0  0  0  0
    4.0668   -1.5229    0.0000 Cl  0  0  0  0  0  0  0  0  0  0  0  0
    2.6378   -1.5229    0.0000 C   0  0  0  0  0  0  0  0  0  0  0  0
    1.9233   -1.1104    0.0000 C   0  0  0  0  0  0  0  0  0  0  0  0
    1.4358   -2.7631    0.0000 C   0  0  0  0  0  0  0  0  0  0  0  0
    1.1809   -3.5477    0.0000 C   0  0  0  0  0  0  0  0  0  0  0  0
    1.7329   -4.1608    0.0000 F   0  0  0  0  0  0  0  0  0  0  0  0
    2.1385   -5.8546    0.0000 C   0  0  0  0  0  0  0  0  0  0  0  0
  1  2  2  0  0  0  0
  2  3  1  0  0  0  0
  2  4  1  0  0  0  0
  4  5  4  0  0  0  0
  5  6  4  0  0  0  0
  6  7  4  0  0  0  0
  7  8  4  0  0  0  0
  8  9  1  0  0  0  0
  9 10  4  0  0  0  0
 10 11  4  0  0  0  0
 11 12  1  0  0  0  0
 12 13  1  0  0  0  0
 12 14  1  0  0  0  0
 12 15  1  0  0  0  0
 11 16  4  0  0  0  0
 16 17  4  0  0  0  0
  9 17  4  0  0  0  0
 17 18  1  0  0  0  0
 18 19  2  0  0  0  0
 18 20  1  0  0  0  0
 20 21  1  0  0  0  0
 21 22  4  0  0  0  0
 22 23  4  0  0  0  0
 23 24  4  0  0  0  0
 24 25  1  0  0  0  0
 25 26  4  0  0  0  0
 26 27  4  0  0  0  0
 27 28  4  0  0  0  0
 28 29  4  0  0  0  0
 29 30  4  0  0  0  0
 30 31  1  0  0  0  0
 30 32  4  0  0  0  0
 32 33  1  0  0  0  0
 32 34  4  0  0  0  0
 34 35  4  0  0  0  0
 28 35  4  0  0  0  0
 25 35  4  0  0  0  0
 24 36  4  0  0  0  0
 36 37  4  0  0  0  0
 21 37  4  0  0  0  0
 37 38  1  0  0  0  0
  8 39  4  0  0  0  0
  4 39  4  0  0  0  0
M  END
>  <CdId>
358892

>  <Mol Weight>
576.333

>  <Formula>
C25H15Cl2F4N7O

>  <cmpd_chemblid>
CHEMBL360636

>  <std_type>
Ki

>  <std_value>
26.0

>  <std_unit>
nM

>  <target_id>
CHEMBL2016

>  <target_name>
Coagulation factor IX

>  <organism>
Homo sapiens

>  <target_type>
SINGLE PROTEIN

$$$$

  Mrv0541 08052111042D          

 41 45  0  0  1  0            999 V2000
    4.5375   -2.9684    0.0000 C   0  0  0  0  0  0  0  0  0  0  0  0
    4.1250   -2.2539    0.0000 O   0  0  0  0  0  0  0  0  0  0  0  0
    3.3000   -2.2539    0.0000 C   0  0  0  0  0  0  0  0  0  0  0  0
    2.8875   -2.9684    0.0000 O   0  0  0  0  0  0  0  0  0  0  0  0
    2.8875   -1.5395    0.0000 C   0  0  0  0  0  0  0  0  0  0  0  0
    3.3000   -0.8250    0.0000 C   0  0  0  0  0  0  0  0  0  0  0  0
    2.8875   -0.1105    0.0000 C   0  0  0  0  0  0  0  0  0  0  0  0
    2.0625   -0.1105    0.0000 C   0  0  0  0  0  0  0  0  0  0  0  0
    1.6500   -0.8250    0.0000 C   0  0  0  0  0  0  0  0  0  0  0  0
    2.0625   -1.5395    0.0000 C   0  0  0  0  0  0  0  0  0  0  0  0
    0.8250   -0.8250    0.0000 C   0  0  0  0  0  0  0  0  0  0  0  0
    0.4125   -1.5395    0.0000 C   0  0  0  0  0  0  0  0  0  0  0  0
   -0.4125   -1.5395    0.0000 C   0  0  0  0  0  0  0  0  0  0  0  0
   -0.8250   -0.8250    0.0000 N   0  0  0  0  0  0  0  0  0  0  0  0
   -0.4125   -0.1105    0.0000 C   0  0  0  0  0  0  0  0  0  0  0  0
    0.4125   -0.1105    0.0000 C   0  0  0  0  0  0  0  0  0  0  0  0
   -0.8250    0.6039    0.0000 C   0  0  1  0  0  0  0  0  0  0  0  0
   -1.6500    0.6039    0.0000 N   0  0  0  0  0  0  0  0  0  0  0  0
   -2.0625   -0.1105    0.0000 C   0  0  0  0  0  0  0  0  0  0  0  0
   -2.8875   -0.1105    0.0000 C   0  0  0  0  0  0  0  0  0  0  0  0
   -3.3000    0.6039    0.0000 C   0  0  0  0  0  0  0  0  0  0  0  0
   -4.1250    0.6039    0.0000 C   0  0  0  0  0  0  0  0  0  0  0  0
   -4.5375   -0.1105    0.0000 C   0  0  0  0  0  0  0  0  0  0  0  0
   -4.1250   -0.8250    0.0000 F   0  0  0  0  0  0  0  0  0  0  0  0
   -5.3625   -0.1105    0.0000 C   0  0  0  0  0  0  0  0  0  0  0  0
   -5.7750    0.6039    0.0000 C   0  0  0  0  0  0  0  0  0  0  0  0
   -5.3625    1.3184    0.0000 C   0  0  0  0  0  0  0  0  0  0  0  0
   -5.7750    2.0329    0.0000 Cl  0  0  0  0  0  0  0  0  0  0  0  0
   -4.5375    1.3184    0.0000 C   0  0  0  0  0  0  0  0  0  0  0  0
   -4.1250    2.0329    0.0000 F   0  0  0  0  0  0  0  0  0  0  0  0
   -2.8875    1.3184    0.0000 C   0  0  0  0  0  0  0  0  0  0  0  0
   -2.0625    1.3184    0.0000 C   0  0  0  0  0  0  0  0  0  0  0  0
   -1.6500    2.0329    0.0000 O   0  0  0  0  0  0  0  0  0  0  0  0
   -0.4125    1.3184    0.0000 C   0  0  0  0  0  0  0  0  0  0  0  0
    0.4125    1.3184    0.0000 C   0  0  0  0  0  0  0  0  0  0  0  0
    0.8250    2.0329    0.0000 C   0  0  0  0  0  0  0  0  0  0  0  0
    1.6500    2.0329    0.0000 C   0  0  1  0  0  0  0  0  0  0  0  0
    2.0625    2.7474    0.0000 C   0  0  0  0  0  0  0  0  0  0  0  0
    2.0625    1.3184    0.0000 C   0  0  0  0  0  0  0  0  0  0  0  0
    2.8875    1.3184    0.0000 O   0  0  0  0  0  0  0  0  0  0  0  0
    1.6500    0.6039    0.0000 N   0  0  0  0  0  0  0  0  0  0  0  0
  1  2  1  0  0  0  0
  2  3  1  0  0  0  0
  3  4  2  0  0  0  0
  3  5  1  0  0  0  0
  5  6  4  0  0  0  0
  6  7  4  0  0  0  0
  7  8  4  0  0  0  0
  8  9  4  0  0  0  0
  9 10  4  0  0  0  0
  5 10  4  0  0  0  0
  9 11  1  0  0  0  0
 11 12  4  0  0  0  0
 12 13  4  0  0  0  0
 13 14  4  0  0  0  0
 14 15  4  0  0  0  0
 15 16  4  0  0  0  0
 11 16  4  0  0  0  0
 15 17  1  0  0  0  0
 17 18  1  1  0  0  0
 18 19  1  0  0  0  0
 19 20  1  0  0  0  0
 20 21  1  0  0  0  0
 21 22  1  0  0  0  0
 22 23  4  0  0  0  0
 23 24  1  0  0  0  0
 23 25  4  0  0  0  0
 25 26  4  0  0  0  0
 26 27  4  0  0  0  0
 27 28  1  0  0  0  0
 27 29  4  0  0  0  0
 22 29  4  0  0  0  0
 29 30  1  0  0  0  0
 21 31  2  0  0  0  0
 31 32  1  0  0  0  0
 18 32  1  0  0  0  0
 32 33  2  0  0  0  0
 17 34  1  0  0  0  0
 34 35  1  0  0  0  0
 35 36  1  0  0  0  0
 36 37  1  0  0  0  0
 37 38  1  1  0  0  0
 37 39  1  0  0  0  0
 39 40  2  0  0  0  0
 39 41  1  0  0  0  0
  8 41  1  0  0  0  0
M  END
>  <CdId>
358893

>  <Mol Weight>
580.022

>  <Formula>
C31H28ClF2N3O4

>  <cmpd_chemblid>
CHEMBL4114194

>  <std_type>
Ki

>  <std_value>
185.7

>  <std_unit>
nM

>  <target_id>
CHEMBL2016

>  <target_name>
Coagulation factor IX

>  <organism>
Homo sapiens

>  <target_type>
SINGLE PROTEIN

$$$$

  Mrv0541 08052111042D          

 30 34  0  0  0  0            999 V2000
    0.8838   -2.1500    0.0000 N   0  0  0  0  0  0  0  0  0  0  0  0
    1.1387   -1.3654    0.0000 C   0  0  0  0  0  0  0  0  0  0  0  0
    0.6538   -0.6979    0.0000 N   0  0  0  0  0  0  0  0  0  0  0  0
    1.1387   -0.0305    0.0000 O   0  0  0  0  0  0  0  0  0  0  0  0
    1.9233   -0.2854    0.0000 C   0  0  0  0  0  0  0  0  0  0  0  0
    2.6378    0.1271    0.0000 C   0  0  0  0  0  0  0  0  0  0  0  0
    2.6378    0.9521    0.0000 N   0  0  0  0  0  0  0  0  0  0  0  0
    1.9704    1.4370    0.0000 C   0  0  0  0  0  0  0  0  0  0  0  0
    2.2253    2.2216    0.0000 C   0  0  0  0  0  0  0  0  0  0  0  0
    3.0503    2.2216    0.0000 C   0  0  0  0  0  0  0  0  0  0  0  0
    3.5352    2.8890    0.0000 N   0  0  0  0  0  0  0  0  0  0  0  0
    3.1997    3.6427    0.0000 C   0  0  0  0  0  0  0  0  0  0  0  0
    2.3792    3.7290    0.0000 O   0  0  0  0  0  0  0  0  0  0  0  0
    3.6846    4.3102    0.0000 C   0  0  0  0  0  0  0  0  0  0  0  0
    3.3490    5.0638    0.0000 C   0  0  0  0  0  0  0  0  0  0  0  0
    3.8340    5.7313    0.0000 C   0  0  0  0  0  0  0  0  0  0  0  0
    4.6544    5.6450    0.0000 C   0  0  0  0  0  0  0  0  0  0  0  0
    5.1394    6.3125    0.0000 N   0  0  0  0  0  0  0  0  0  0  0  0
    4.8844    7.0971    0.0000 C   0  0  0  0  0  0  0  0  0  0  0  0
    5.5519    7.5820    0.0000 N   0  0  0  0  0  0  0  0  0  0  0  0
    6.2193    7.0971    0.0000 N   0  0  0  0  0  0  0  0  0  0  0  0
    5.9644    6.3125    0.0000 C   0  0  0  0  0  0  0  0  0  0  0  0
    4.9900    4.8914    0.0000 C   0  0  0  0  0  0  0  0  0  0  0  0
    4.5051    4.2239    0.0000 C   0  0  0  0  0  0  0  0  0  0  0  0
    4.8406    3.4702    0.0000 Cl  0  0  0  0  0  0  0  0  0  0  0  0
    3.3053    1.4370    0.0000 C   0  0  0  0  0  0  0  0  0  0  0  0
    3.3523   -0.2854    0.0000 C   0  0  0  0  0  0  0  0  0  0  0  0
    3.3523   -1.1104    0.0000 C   0  0  0  0  0  0  0  0  0  0  0  0
    2.6378   -1.5229    0.0000 C   0  0  0  0  0  0  0  0  0  0  0  0
    1.9233   -1.1104    0.0000 C   0  0  0  0  0  0  0  0  0  0  0  0
  1  2  1  0  0  0  0
  2  3  4  0  0  0  0
  3  4  4  0  0  0  0
  4  5  4  0  0  0  0
  5  6  4  0  0  0  0
  6  7  1  0  0  0  0
  7  8  1  0  0  0  0
  8  9  1  0  0  0  0
  9 10  1  0  0  0  0
 10 11  1  0  0  0  0
 11 12  1  0  0  0  0
 12 13  2  0  0  0  0
 12 14  1  0  0  0  0
 14 15  4  0  0  0  0
 15 16  4  0  0  0  0
 16 17  4  0  0  0  0
 17 18  1  0  0  0  0
 18 19  4  0  0  0  0
 19 20  4  0  0  0  0
 20 21  4  0  0  0  0
 21 22  4  0  0  0  0
 18 22  4  0  0  0  0
 17 23  4  0  0  0  0
 23 24  4  0  0  0  0
 14 24  4  0  0  0  0
 24 25  1  0  0  0  0
 10 26  1  0  0  0  0
  7 26  1  0  0  0  0
  6 27  4  0  0  0  0
 27 28  4  0  0  0  0
 28 29  4  0  0  0  0
 29 30  4  0  0  0  0
  2 30  4  0  0  0  0
  5 30  4  0  0  0  0
M  END
>  <CdId>
358894

>  <Mol Weight>
423.856

>  <Formula>
C20H18ClN7O2

>  <cmpd_chemblid>
CHEMBL4085322

>  <std_type>
Ki

>  <std_value>
49.0

>  <std_unit>
nM

>  <target_id>
CHEMBL2016

>  <target_name>
Coagulation factor IX

>  <organism>
Homo sapiens

>  <target_type>
SINGLE PROTEIN

$$$$

  Mrv0541 08052111042D          

 39 42  0  0  1  0            999 V2000
   -6.0858    4.6798    0.0000 C   0  0  0  0  0  0  0  0  0  0  0  0
   -5.2653    4.7660    0.0000 N   0  0  0  0  0  0  0  0  0  0  0  0
   -4.9297    5.5197    0.0000 C   0  0  0  0  0  0  0  0  0  0  0  0
   -4.7804    4.0986    0.0000 C   0  0  0  0  0  0  0  0  0  0  0  0
   -3.9599    4.1848    0.0000 C   0  0  0  0  0  0  0  0  0  0  0  0
   -3.4749    3.5174    0.0000 C   0  0  0  0  0  0  0  0  0  0  0  0
   -3.8105    2.7637    0.0000 C   0  0  0  0  0  0  0  0  0  0  0  0
   -3.3256    2.0962    0.0000 S   0  0  0  0  0  0  0  0  0  0  0  0
   -3.9930    1.6113    0.0000 O   0  0  0  0  0  0  0  0  0  0  0  0
   -2.6581    2.5812    0.0000 O   0  0  0  0  0  0  0  0  0  0  0  0
   -2.8407    1.4288    0.0000 N   0  0  0  0  0  0  0  0  0  0  0  0
   -2.0202    1.5150    0.0000 C   0  0  1  0  0  0  0  0  0  0  0  0
   -1.6077    2.2295    0.0000 C   0  0  0  0  0  0  0  0  0  0  0  0
   -0.8007    2.0580    0.0000 C   0  0  0  0  0  0  0  0  0  0  0  0
   -0.7145    1.2375    0.0000 N   0  0  0  0  0  0  0  0  0  0  0  0
    0.0000    0.8250    0.0000 C   0  0  2  0  0  0  0  0  0  0  0  0
    0.0000    0.0000    0.0000 C   0  0  0  0  0  0  0  0  0  0  0  0
    0.7145   -0.4125    0.0000 C   0  0  0  0  0  0  0  0  0  0  0  0
    1.4289    0.0000    0.0000 C   0  0  0  0  0  0  0  0  0  0  0  0
    2.1434   -0.4125    0.0000 C   0  0  0  0  0  0  0  0  0  0  0  0
    2.8579    0.0000    0.0000 C   0  0  0  0  0  0  0  0  0  0  0  0
    3.5724   -0.4125    0.0000 C   0  0  0  0  0  0  0  0  0  0  0  0
    3.5724   -1.2375    0.0000 N   0  0  0  0  0  0  0  0  0  0  0  0
    2.8579   -1.6500    0.0000 C   0  0  0  0  0  0  0  0  0  0  0  0
    2.8579   -2.4750    0.0000 N   0  0  0  0  0  0  0  0  0  0  0  0
    2.1434   -1.2375    0.0000 C   0  0  0  0  0  0  0  0  0  0  0  0
    1.4289   -1.6500    0.0000 C   0  0  0  0  0  0  0  0  0  0  0  0
    0.7145   -1.2375    0.0000 C   0  0  0  0  0  0  0  0  0  0  0  0
    0.0000   -1.6500    0.0000 C   0  0  0  0  0  0  0  0  0  0  0  0
   -0.7145   -2.0625    0.0000 F   0  0  0  0  0  0  0  0  0  0  0  0
   -0.4125   -0.9355    0.0000 F   0  0  0  0  0  0  0  0  0  0  0  0
    0.4125   -2.3645    0.0000 F   0  0  0  0  0  0  0  0  0  0  0  0
    0.7145    1.2375    0.0000 C   0  0  0  0  0  0  0  0  0  0  0  0
    0.7145    2.0625    0.0000 O   0  0  0  0  0  0  0  0  0  0  0  0
    1.4289    0.8250    0.0000 O   0  0  0  0  0  0  0  0  0  0  0  0
   -1.4681    0.9019    0.0000 C   0  0  0  0  0  0  0  0  0  0  0  0
   -1.6397    0.0950    0.0000 O   0  0  0  0  0  0  0  0  0  0  0  0
   -4.6310    2.6774    0.0000 C   0  0  0  0  0  0  0  0  0  0  0  0
   -5.1159    3.3449    0.0000 N   0  0  0  0  0  0  0  0  0  0  0  0
  1  2  1  0  0  0  0
  2  3  1  0  0  0  0
  2  4  1  0  0  0  0
  4  5  4  0  0  0  0
  5  6  4  0  0  0  0
  6  7  4  0  0  0  0
  7  8  1  0  0  0  0
  8  9  2  0  0  0  0
  8 10  2  0  0  0  0
  8 11  1  0  0  0  0
 12 11  1  1  0  0  0
 12 13  1  0  0  0  0
 13 14  1  0  0  0  0
 14 15  1  0  0  0  0
 16 15  1  1  0  0  0
 16 17  1  0  0  0  0
 17 18  1  0  0  0  0
 18 19  4  0  0  0  0
 19 20  4  0  0  0  0
 20 21  4  0  0  0  0
 21 22  4  0  0  0  0
 22 23  4  0  0  0  0
 23 24  4  0  0  0  0
 24 25  1  0  0  0  0
 24 26  4  0  0  0  0
 20 26  4  0  0  0  0
 26 27  4  0  0  0  0
 27 28  4  0  0  0  0
 18 28  4  0  0  0  0
 28 29  1  0  0  0  0
 29 30  1  0  0  0  0
 29 31  1  0  0  0  0
 29 32  1  0  0  0  0
 16 33  1  0  0  0  0
 33 34  2  0  0  0  0
 33 35  1  0  0  0  0
 15 36  1  0  0  0  0
 12 36  1  0  0  0  0
 36 37  2  0  0  0  0
  7 38  4  0  0  0  0
 38 39  4  0  0  0  0
  4 39  4  0  0  0  0
M  END
>  <CdId>
358895

>  <Mol Weight>
566.553

>  <Formula>
C24H25F3N6O5S

>  <cmpd_chemblid>
CHEMBL3957319

>  <std_type>
Ki

>  <std_value>
34.5

>  <std_unit>
nM

>  <target_id>
CHEMBL2016

>  <target_name>
Coagulation factor IX

>  <organism>
Homo sapiens

>  <target_type>
SINGLE PROTEIN

$$$$

  Mrv0541 08052111042D          

 38 40  0  0  0  0            999 V2000
   -1.4827   -2.1948    0.0000 C   0  0  0  0  0  0  0  0  0  0  0  0
   -2.0347   -1.5817    0.0000 C   0  0  0  0  0  0  0  0  0  0  0  0
   -2.8417   -1.7532    0.0000 C   0  0  0  0  0  0  0  0  0  0  0  0
   -3.3937   -1.1401    0.0000 C   0  0  0  0  0  0  0  0  0  0  0  0
   -3.1388   -0.3555    0.0000 C   0  0  0  0  0  0  0  0  0  0  0  0
   -3.6908    0.2576    0.0000 F   0  0  0  0  0  0  0  0  0  0  0  0
   -2.3318   -0.1839    0.0000 C   0  0  0  0  0  0  0  0  0  0  0  0
   -1.7798   -0.7970    0.0000 C   0  0  0  0  0  0  0  0  0  0  0  0
   -0.9728   -0.6255    0.0000 N   0  0  0  0  0  0  0  0  0  0  0  0
   -0.7179    0.1591    0.0000 C   0  0  0  0  0  0  0  0  0  0  0  0
   -1.2699    0.7722    0.0000 O   0  0  0  0  0  0  0  0  0  0  0  0
    0.0891    0.3306    0.0000 C   0  0  0  0  0  0  0  0  0  0  0  0
    0.6411   -0.2825    0.0000 C   0  0  0  0  0  0  0  0  0  0  0  0
    0.3862   -1.0671    0.0000 C   0  0  0  0  0  0  0  0  0  0  0  0
    0.9382   -1.6802    0.0000 C   0  0  0  0  0  0  0  0  0  0  0  0
    0.6833   -2.4648    0.0000 C   0  0  0  0  0  0  0  0  0  0  0  0
   -0.1237   -2.6363    0.0000 C   0  0  0  0  0  0  0  0  0  0  0  0
   -0.6757   -2.0232    0.0000 C   0  0  0  0  0  0  0  0  0  0  0  0
   -0.4208   -1.2386    0.0000 C   0  0  0  0  0  0  0  0  0  0  0  0
    0.3440    1.1153    0.0000 C   0  0  0  0  0  0  0  0  0  0  0  0
   -0.1409    1.7827    0.0000 C   0  0  0  0  0  0  0  0  0  0  0  0
    0.3440    2.4501    0.0000 S   0  0  0  0  0  0  0  0  0  0  0  0
    1.1287    2.1952    0.0000 C   0  0  0  0  0  0  0  0  0  0  0  0
    1.8431    2.6077    0.0000 C   0  0  0  0  0  0  0  0  0  0  0  0
    2.5576    2.1952    0.0000 C   0  0  0  0  0  0  0  0  0  0  0  0
    2.5576    1.3702    0.0000 C   0  0  0  0  0  0  0  0  0  0  0  0
    3.2721    0.9577    0.0000 C   0  0  0  0  0  0  0  0  0  0  0  0
    3.9866    1.3702    0.0000 N   0  0  0  0  0  0  0  0  0  0  0  0
    3.2721    0.1327    0.0000 N   0  0  0  0  0  0  0  0  0  0  0  0
    1.8431    0.9577    0.0000 C   0  0  0  0  0  0  0  0  0  0  0  0
    1.1287    1.3702    0.0000 C   0  0  0  0  0  0  0  0  0  0  0  0
    6.1007   -0.8839    0.0000 O   0  0  0  0  0  0  0  0  0  0  0  0
    6.8151   -0.4714    0.0000 C   0  0  0  0  0  0  0  0  0  0  0  0
    7.5296   -0.8839    0.0000 O   0  0  0  0  0  0  0  0  0  0  0  0
    6.8151    0.3536    0.0000 C   0  0  0  0  0  0  0  0  0  0  0  0
    6.8151    1.1786    0.0000 F   0  0  0  0  0  0  0  0  0  0  0  0
    7.6401    0.3536    0.0000 F   0  0  0  0  0  0  0  0  0  0  0  0
    5.9901    0.3536    0.0000 F   0  0  0  0  0  0  0  0  0  0  0  0
  1  2  1  0  0  0  0
  2  3  4  0  0  0  0
  3  4  4  0  0  0  0
  4  5  4  0  0  0  0
  5  6  1  0  0  0  0
  5  7  4  0  0  0  0
  7  8  4  0  0  0  0
  2  8  4  0  0  0  0
  8  9  1  0  0  0  0
  9 10  1  0  0  0  0
 10 11  2  0  0  0  0
 10 12  1  0  0  0  0
 12 13  1  0  0  0  0
 13 14  1  0  0  0  0
 14 15  4  0  0  0  0
 15 16  4  0  0  0  0
 16 17  4  0  0  0  0
 17 18  4  0  0  0  0
 18 19  4  0  0  0  0
 14 19  4  0  0  0  0
 12 20  1  0  0  0  0
 20 21  4  0  0  0  0
 21 22  4  0  0  0  0
 22 23  4  0  0  0  0
 23 24  4  0  0  0  0
 24 25  4  0  0  0  0
 25 26  4  0  0  0  0
 26 27  1  0  0  0  0
 27 28  2  0  0  0  0
 27 29  1  0  0  0  0
 26 30  4  0  0  0  0
 30 31  4  0  0  0  0
 20 31  4  0  0  0  0
 23 31  4  0  0  0  0
 32 33  2  0  0  0  0
 33 34  1  0  0  0  0
 33 35  1  0  0  0  0
 35 36  1  0  0  0  0
 35 37  1  0  0  0  0
 35 38  1  0  0  0  0
M  END
>  <CdId>
358896

>  <Mol Weight>
545.548

>  <Formula>
C27H23F4N3O3S

>  <cmpd_chemblid>
CHEMBL362648

>  <std_type>
Ki

>  <std_value>
960.0

>  <std_unit>
nM

>  <target_id>
CHEMBL2016

>  <target_name>
Coagulation factor IX

>  <organism>
Homo sapiens

>  <target_type>
SINGLE PROTEIN

$$$$

  Mrv0541 08052111042D          

 37 41  0  0  0  0            999 V2000
    4.2010   -5.1401    0.0000 N   0  0  0  0  0  0  0  0  0  0  0  0
    3.3760   -5.1401    0.0000 C   0  0  0  0  0  0  0  0  0  0  0  0
    2.9635   -4.4256    0.0000 N   0  0  0  0  0  0  0  0  0  0  0  0
    2.9635   -5.8546    0.0000 C   0  0  0  0  0  0  0  0  0  0  0  0
    3.3760   -6.5690    0.0000 C   0  0  0  0  0  0  0  0  0  0  0  0
    2.9635   -7.2835    0.0000 C   0  0  0  0  0  0  0  0  0  0  0  0
    2.1385   -7.2835    0.0000 C   0  0  0  0  0  0  0  0  0  0  0  0
    1.7260   -6.5690    0.0000 C   0  0  0  0  0  0  0  0  0  0  0  0
    0.9010   -6.5690    0.0000 N   0  0  0  0  0  0  0  0  0  0  0  0
    0.4161   -7.2365    0.0000 N   0  0  0  0  0  0  0  0  0  0  0  0
   -0.3686   -6.9815    0.0000 C   0  0  0  0  0  0  0  0  0  0  0  0
   -1.0360   -7.4664    0.0000 C   0  0  0  0  0  0  0  0  0  0  0  0
   -1.7034   -7.9514    0.0000 F   0  0  0  0  0  0  0  0  0  0  0  0
   -1.5209   -6.7990    0.0000 F   0  0  0  0  0  0  0  0  0  0  0  0
   -0.5511   -8.1339    0.0000 F   0  0  0  0  0  0  0  0  0  0  0  0
   -0.3686   -6.1565    0.0000 C   0  0  0  0  0  0  0  0  0  0  0  0
    0.4161   -5.9016    0.0000 C   0  0  0  0  0  0  0  0  0  0  0  0
    0.6710   -5.1170    0.0000 C   0  0  0  0  0  0  0  0  0  0  0  0
    1.4780   -4.9454    0.0000 O   0  0  0  0  0  0  0  0  0  0  0  0
    0.1190   -4.5039    0.0000 N   0  0  0  0  0  0  0  0  0  0  0  0
    0.3739   -3.7192    0.0000 C   0  0  0  0  0  0  0  0  0  0  0  0
   -0.1781   -3.1062    0.0000 C   0  0  0  0  0  0  0  0  0  0  0  0
    0.0768   -2.3215    0.0000 C   0  0  0  0  0  0  0  0  0  0  0  0
    0.8838   -2.1500    0.0000 C   0  0  0  0  0  0  0  0  0  0  0  0
    1.1387   -1.3654    0.0000 N   0  0  0  0  0  0  0  0  0  0  0  0
    0.6538   -0.6979    0.0000 C   0  0  0  0  0  0  0  0  0  0  0  0
    1.1387   -0.0305    0.0000 N   0  0  0  0  0  0  0  0  0  0  0  0
    1.9233   -0.2854    0.0000 C   0  0  0  0  0  0  0  0  0  0  0  0
    2.6378    0.1271    0.0000 C   0  0  0  0  0  0  0  0  0  0  0  0
    3.3523   -0.2854    0.0000 C   0  0  0  0  0  0  0  0  0  0  0  0
    3.3523   -1.1104    0.0000 N   0  0  0  0  0  0  0  0  0  0  0  0
    2.6378   -1.5229    0.0000 C   0  0  0  0  0  0  0  0  0  0  0  0
    1.9233   -1.1104    0.0000 C   0  0  0  0  0  0  0  0  0  0  0  0
    1.4358   -2.7631    0.0000 C   0  0  0  0  0  0  0  0  0  0  0  0
    1.1809   -3.5477    0.0000 C   0  0  0  0  0  0  0  0  0  0  0  0
    1.7329   -4.1608    0.0000 F   0  0  0  0  0  0  0  0  0  0  0  0
    2.1385   -5.8546    0.0000 C   0  0  0  0  0  0  0  0  0  0  0  0
  1  2  2  0  0  0  0
  2  3  1  0  0  0  0
  2  4  1  0  0  0  0
  4  5  4  0  0  0  0
  5  6  4  0  0  0  0
  6  7  4  0  0  0  0
  7  8  4  0  0  0  0
  8  9  1  0  0  0  0
  9 10  4  0  0  0  0
 10 11  4  0  0  0  0
 11 12  1  0  0  0  0
 12 13  1  0  0  0  0
 12 14  1  0  0  0  0
 12 15  1  0  0  0  0
 11 16  4  0  0  0  0
 16 17  4  0  0  0  0
  9 17  4  0  0  0  0
 17 18  1  0  0  0  0
 18 19  2  0  0  0  0
 18 20  1  0  0  0  0
 20 21  1  0  0  0  0
 21 22  4  0  0  0  0
 22 23  4  0  0  0  0
 23 24  4  0  0  0  0
 24 25  1  0  0  0  0
 25 26  4  0  0  0  0
 26 27  4  0  0  0  0
 27 28  4  0  0  0  0
 28 29  4  0  0  0  0
 29 30  4  0  0  0  0
 30 31  4  0  0  0  0
 31 32  4  0  0  0  0
 32 33  4  0  0  0  0
 28 33  4  0  0  0  0
 25 33  4  0  0  0  0
 24 34  4  0  0  0  0
 34 35  4  0  0  0  0
 21 35  4  0  0  0  0
 35 36  1  0  0  0  0
  8 37  4  0  0  0  0
  4 37  4  0  0  0  0
M  END
>  <CdId>
358897

>  <Mol Weight>
508.4305

>  <Formula>
C24H16F4N8O

>  <cmpd_chemblid>
CHEMBL362362

>  <std_type>
Ki

>  <std_value>
7.9

>  <std_unit>
nM

>  <target_id>
CHEMBL2016

>  <target_name>
Coagulation factor IX

>  <organism>
Homo sapiens

>  <target_type>
SINGLE PROTEIN

$$$$

  Mrv0541 08052111042D          

 49 54  0  0  0  0            999 V2000
    2.9636   -1.8667    0.0000 N   0  0  0  0  0  0  0  0  0  0  0  0
    2.2492   -1.4542    0.0000 C   0  0  0  0  0  0  0  0  0  0  0  0
    2.2492   -0.6292    0.0000 N   0  0  0  0  0  0  0  0  0  0  0  0
    1.5347   -1.8667    0.0000 C   0  0  0  0  0  0  0  0  0  0  0  0
    1.5347   -2.6917    0.0000 C   0  0  0  0  0  0  0  0  0  0  0  0
    0.8202   -3.1042    0.0000 C   0  0  0  0  0  0  0  0  0  0  0  0
    0.1058   -2.6917    0.0000 C   0  0  0  0  0  0  0  0  0  0  0  0
   -0.6789   -2.9467    0.0000 S   0  0  0  0  0  0  0  0  0  0  0  0
   -1.1638   -2.2792    0.0000 C   0  0  0  0  0  0  0  0  0  0  0  0
   -0.6789   -1.6118    0.0000 C   0  0  0  0  0  0  0  0  0  0  0  0
   -0.9338   -0.8272    0.0000 C   0  0  0  0  0  0  0  0  0  0  0  0
   -1.7408   -0.6557    0.0000 C   0  0  0  0  0  0  0  0  0  0  0  0
   -2.2928   -1.2687    0.0000 C   0  0  0  0  0  0  0  0  0  0  0  0
   -2.0379   -2.0534    0.0000 C   0  0  0  0  0  0  0  0  0  0  0  0
   -2.5899   -2.6665    0.0000 C   0  0  0  0  0  0  0  0  0  0  0  0
   -3.3969   -2.4949    0.0000 C   0  0  0  0  0  0  0  0  0  0  0  0
   -3.6518   -1.7103    0.0000 C   0  0  0  0  0  0  0  0  0  0  0  0
   -4.4588   -1.5388    0.0000 C   0  0  0  0  0  0  0  0  0  0  0  0
   -4.7137   -0.7542    0.0000 C   0  0  0  0  0  0  0  0  0  0  0  0
   -4.1617   -0.1411    0.0000 C   0  0  0  0  0  0  0  0  0  0  0  0
   -3.3547   -0.3126    0.0000 C   0  0  0  0  0  0  0  0  0  0  0  0
   -3.0998   -1.0972    0.0000 C   0  0  0  0  0  0  0  0  0  0  0  0
   -0.3818   -0.2141    0.0000 C   0  0  0  0  0  0  0  0  0  0  0  0
    0.4252   -0.3856    0.0000 O   0  0  0  0  0  0  0  0  0  0  0  0
   -0.6367    0.5705    0.0000 N   0  0  0  0  0  0  0  0  0  0  0  0
   -0.0847    1.1836    0.0000 C   0  0  0  0  0  0  0  0  0  0  0  0
   -0.3396    1.9683    0.0000 C   0  0  0  0  0  0  0  0  0  0  0  0
    0.2124    2.5813    0.0000 C   0  0  0  0  0  0  0  0  0  0  0  0
    1.0194    2.4098    0.0000 C   0  0  0  0  0  0  0  0  0  0  0  0
    1.5714    3.0229    0.0000 N   0  0  0  0  0  0  0  0  0  0  0  0
    1.3999    3.8299    0.0000 C   0  0  0  0  0  0  0  0  0  0  0  0
    2.1144    4.2424    0.0000 N   0  0  0  0  0  0  0  0  0  0  0  0
    2.7275    3.6904    0.0000 C   0  0  0  0  0  0  0  0  0  0  0  0
    3.5479    3.7766    0.0000 C   0  0  0  0  0  0  0  0  0  0  0  0
    4.0329    3.1092    0.0000 C   0  0  0  0  0  0  0  0  0  0  0  0
    3.6973    2.3555    0.0000 C   0  0  0  0  0  0  0  0  0  0  0  0
    2.8768    2.2692    0.0000 C   0  0  0  0  0  0  0  0  0  0  0  0
    2.3919    2.9367    0.0000 C   0  0  0  0  0  0  0  0  0  0  0  0
    1.2743    1.6252    0.0000 C   0  0  0  0  0  0  0  0  0  0  0  0
    0.7223    1.0121    0.0000 C   0  0  0  0  0  0  0  0  0  0  0  0
    0.1058   -1.8667    0.0000 C   0  0  0  0  0  0  0  0  0  0  0  0
    0.8202   -1.4542    0.0000 C   0  0  0  0  0  0  0  0  0  0  0  0
    6.1470   -0.8839    0.0000 O   0  0  0  0  0  0  0  0  0  0  0  0
    6.8614   -0.4714    0.0000 C   0  0  0  0  0  0  0  0  0  0  0  0
    7.5759   -0.8839    0.0000 O   0  0  0  0  0  0  0  0  0  0  0  0
    6.8614    0.3536    0.0000 C   0  0  0  0  0  0  0  0  0  0  0  0
    6.8614    1.1786    0.0000 F   0  0  0  0  0  0  0  0  0  0  0  0
    7.6864    0.3536    0.0000 F   0  0  0  0  0  0  0  0  0  0  0  0
    6.0364    0.3536    0.0000 F   0  0  0  0  0  0  0  0  0  0  0  0
  1  2  2  0  0  0  0
  2  3  1  0  0  0  0
  2  4  1  0  0  0  0
  4  5  4  0  0  0  0
  5  6  4  0  0  0  0
  6  7  4  0  0  0  0
  7  8  4  0  0  0  0
  8  9  4  0  0  0  0
  9 10  4  0  0  0  0
 10 11  1  0  0  0  0
 11 12  1  0  0  0  0
 12 13  1  0  0  0  0
 13 14  4  0  0  0  0
 14 15  4  0  0  0  0
 15 16  4  0  0  0  0
 16 17  4  0  0  0  0
 17 18  4  0  0  0  0
 18 19  4  0  0  0  0
 19 20  4  0  0  0  0
 20 21  4  0  0  0  0
 21 22  4  0  0  0  0
 13 22  4  0  0  0  0
 17 22  4  0  0  0  0
 11 23  1  0  0  0  0
 23 24  2  0  0  0  0
 23 25  1  0  0  0  0
 25 26  1  0  0  0  0
 26 27  4  0  0  0  0
 27 28  4  0  0  0  0
 28 29  4  0  0  0  0
 29 30  1  0  0  0  0
 30 31  4  0  0  0  0
 31 32  4  0  0  0  0
 32 33  4  0  0  0  0
 33 34  4  0  0  0  0
 34 35  4  0  0  0  0
 35 36  4  0  0  0  0
 36 37  4  0  0  0  0
 37 38  4  0  0  0  0
 33 38  4  0  0  0  0
 30 38  4  0  0  0  0
 29 39  4  0  0  0  0
 39 40  4  0  0  0  0
 26 40  4  0  0  0  0
 10 41  4  0  0  0  0
  7 41  4  0  0  0  0
 41 42  4  0  0  0  0
  4 42  4  0  0  0  0
 43 44  2  0  0  0  0
 44 45  1  0  0  0  0
 44 46  1  0  0  0  0
 46 47  1  0  0  0  0
 46 48  1  0  0  0  0
 46 49  1  0  0  0  0
M  END
>  <CdId>
358898

>  <Mol Weight>
679.71

>  <Formula>
C37H28F3N5O3S

>  <cmpd_chemblid>
CHEMBL182800

>  <std_type>
Ki

>  <std_value>
230.0

>  <std_unit>
nM

>  <target_id>
CHEMBL2016

>  <target_name>
Coagulation factor IX

>  <organism>
Homo sapiens

>  <target_type>
SINGLE PROTEIN

$$$$

  Mrv0541 08052111042D          

 39 43  0  0  1  0            999 V2000
    3.9849    3.9849    0.0000 C   0  0  0  0  0  0  0  0  0  0  0  0
    4.3974    3.2704    0.0000 C   0  0  2  0  0  0  0  0  0  0  0  0
    5.2224    3.2704    0.0000 C   0  0  0  0  0  0  0  0  0  0  0  0
    5.6349    2.5559    0.0000 C   0  0  0  0  0  0  0  0  0  0  0  0
    6.4599    2.5559    0.0000 C   0  0  0  0  0  0  0  0  0  0  0  0
    6.8724    1.8414    0.0000 C   0  0  2  0  0  0  0  0  0  0  0  0
    7.6974    1.8414    0.0000 N   0  0  0  0  0  0  0  0  0  0  0  0
    8.1099    2.5559    0.0000 C   0  0  0  0  0  0  0  0  0  0  0  0
    8.9349    2.5559    0.0000 C   0  0  0  0  0  0  0  0  0  0  0  0
    9.3474    1.8414    0.0000 C   0  0  0  0  0  0  0  0  0  0  0  0
   10.1724    1.8414    0.0000 C   0  0  0  0  0  0  0  0  0  0  0  0
   10.5849    2.5559    0.0000 C   0  0  0  0  0  0  0  0  0  0  0  0
   10.1724    3.2704    0.0000 F   0  0  0  0  0  0  0  0  0  0  0  0
   11.4099    2.5559    0.0000 C   0  0  0  0  0  0  0  0  0  0  0  0
   11.8224    1.8414    0.0000 C   0  0  0  0  0  0  0  0  0  0  0  0
   11.4099    1.1270    0.0000 C   0  0  0  0  0  0  0  0  0  0  0  0
   11.8224    0.4125    0.0000 Cl  0  0  0  0  0  0  0  0  0  0  0  0
   10.5849    1.1270    0.0000 C   0  0  0  0  0  0  0  0  0  0  0  0
   10.1724    0.4125    0.0000 F   0  0  0  0  0  0  0  0  0  0  0  0
    8.9349    1.1270    0.0000 C   0  0  0  0  0  0  0  0  0  0  0  0
    8.1099    1.1270    0.0000 C   0  0  0  0  0  0  0  0  0  0  0  0
    7.6974    0.4125    0.0000 O   0  0  0  0  0  0  0  0  0  0  0  0
    6.4599    1.1270    0.0000 C   0  0  0  0  0  0  0  0  0  0  0  0
    5.6349    1.1270    0.0000 C   0  0  0  0  0  0  0  0  0  0  0  0
    5.2224    0.4125    0.0000 C   0  0  0  0  0  0  0  0  0  0  0  0
    5.6349   -0.3020    0.0000 C   0  0  0  0  0  0  0  0  0  0  0  0
    6.4599   -0.3020    0.0000 C   0  0  0  0  0  0  0  0  0  0  0  0
    6.8724    0.4125    0.0000 N   0  0  0  0  0  0  0  0  0  0  0  0
    4.3974    0.4125    0.0000 C   0  0  0  0  0  0  0  0  0  0  0  0
    3.9849   -0.3020    0.0000 C   0  0  0  0  0  0  0  0  0  0  0  0
    3.1599   -0.3020    0.0000 C   0  0  0  0  0  0  0  0  0  0  0  0
    2.7474   -1.0164    0.0000 F   0  0  0  0  0  0  0  0  0  0  0  0
    2.7474    0.4125    0.0000 C   0  0  0  0  0  0  0  0  0  0  0  0
    1.9224    0.4125    0.0000 F   0  0  0  0  0  0  0  0  0  0  0  0
    3.1599    1.1270    0.0000 C   0  0  0  0  0  0  0  0  0  0  0  0
    3.9849    1.1270    0.0000 C   0  0  0  0  0  0  0  0  0  0  0  0
    4.3974    1.8414    0.0000 N   0  0  0  0  0  0  0  0  0  0  0  0
    3.9849    2.5559    0.0000 C   0  0  0  0  0  0  0  0  0  0  0  0
    3.1599    2.5559    0.0000 O   0  0  0  0  0  0  0  0  0  0  0  0
  2  1  1  6  0  0  0
  2  3  1  0  0  0  0
  3  4  1  0  0  0  0
  4  5  1  0  0  0  0
  5  6  1  0  0  0  0
  6  7  1  6  0  0  0
  7  8  1  0  0  0  0
  8  9  1  0  0  0  0
  9 10  1  0  0  0  0
 10 11  1  0  0  0  0
 11 12  4  0  0  0  0
 12 13  1  0  0  0  0
 12 14  4  0  0  0  0
 14 15  4  0  0  0  0
 15 16  4  0  0  0  0
 16 17  1  0  0  0  0
 16 18  4  0  0  0  0
 11 18  4  0  0  0  0
 18 19  1  0  0  0  0
 10 20  2  0  0  0  0
 20 21  1  0  0  0  0
  7 21  1  0  0  0  0
 21 22  2  0  0  0  0
  6 23  1  0  0  0  0
 23 24  4  0  0  0  0
 24 25  4  0  0  0  0
 25 26  4  0  0  0  0
 26 27  4  0  0  0  0
 27 28  4  0  0  0  0
 23 28  4  0  0  0  0
 25 29  1  0  0  0  0
 29 30  4  0  0  0  0
 30 31  4  0  0  0  0
 31 32  1  0  0  0  0
 31 33  4  0  0  0  0
 33 34  1  0  0  0  0
 33 35  4  0  0  0  0
 35 36  4  0  0  0  0
 29 36  4  0  0  0  0
 36 37  1  0  0  0  0
 37 38  1  0  0  0  0
  2 38  1  0  0  0  0
 38 39  2  0  0  0  0
M  END
>  <CdId>
358899

>  <Mol Weight>
557.966

>  <Formula>
C29H24ClF4N3O2

>  <cmpd_chemblid>
CHEMBL4111353

>  <std_type>
Ki

>  <std_value>
69.25

>  <std_unit>
nM

>  <target_id>
CHEMBL2016

>  <target_name>
Coagulation factor IX

>  <organism>
Homo sapiens

>  <target_type>
SINGLE PROTEIN

$$$$

  Mrv0541 08052111042D          

 27 30  0  0  0  0            999 V2000
   -0.5837   -1.4124    0.0000 N   0  0  0  0  0  0  0  0  0  0  0  0
   -0.1712   -0.6979    0.0000 C   0  0  0  0  0  0  0  0  0  0  0  0
   -0.5837    0.0165    0.0000 N   0  0  0  0  0  0  0  0  0  0  0  0
    0.6538   -0.6979    0.0000 C   0  0  0  0  0  0  0  0  0  0  0  0
    1.1387   -0.0305    0.0000 C   0  0  0  0  0  0  0  0  0  0  0  0
    1.9233   -0.2854    0.0000 C   0  0  0  0  0  0  0  0  0  0  0  0
    2.6378    0.1271    0.0000 C   0  0  0  0  0  0  0  0  0  0  0  0
    3.3523   -0.2854    0.0000 C   0  0  0  0  0  0  0  0  0  0  0  0
    4.0668    0.1271    0.0000 C   0  0  0  0  0  0  0  0  0  0  0  0
    4.0668    0.9521    0.0000 C   0  0  0  0  0  0  0  0  0  0  0  0
    4.7812    1.3646    0.0000 C   0  0  0  0  0  0  0  0  0  0  0  0
    5.4957    0.9521    0.0000 C   0  0  0  0  0  0  0  0  0  0  0  0
    5.4957    0.1271    0.0000 C   0  0  0  0  0  0  0  0  0  0  0  0
    6.2102   -0.2854    0.0000 O   0  0  0  0  0  0  0  0  0  0  0  0
    6.9246    0.1271    0.0000 C   0  0  0  0  0  0  0  0  0  0  0  0
    7.6391   -0.2854    0.0000 C   0  0  0  0  0  0  0  0  0  0  0  0
    8.3536    0.1271    0.0000 C   0  0  0  0  0  0  0  0  0  0  0  0
    9.0681   -0.2854    0.0000 C   0  0  0  0  0  0  0  0  0  0  0  0
    9.0681   -1.1104    0.0000 C   0  0  0  0  0  0  0  0  0  0  0  0
    8.3536   -1.5229    0.0000 C   0  0  0  0  0  0  0  0  0  0  0  0
    8.3536   -2.3479    0.0000 Cl  0  0  0  0  0  0  0  0  0  0  0  0
    7.6391   -1.1104    0.0000 C   0  0  0  0  0  0  0  0  0  0  0  0
    4.7812   -0.2854    0.0000 C   0  0  0  0  0  0  0  0  0  0  0  0
    3.3523   -1.1104    0.0000 C   0  0  0  0  0  0  0  0  0  0  0  0
    2.6378   -1.5229    0.0000 C   0  0  0  0  0  0  0  0  0  0  0  0
    1.9233   -1.1104    0.0000 C   0  0  0  0  0  0  0  0  0  0  0  0
    1.1387   -1.3654    0.0000 S   0  0  0  0  0  0  0  0  0  0  0  0
  1  2  2  0  0  0  0
  2  3  1  0  0  0  0
  2  4  1  0  0  0  0
  4  5  4  0  0  0  0
  5  6  4  0  0  0  0
  6  7  4  0  0  0  0
  7  8  4  0  0  0  0
  8  9  1  0  0  0  0
  9 10  4  0  0  0  0
 10 11  4  0  0  0  0
 11 12  4  0  0  0  0
 12 13  4  0  0  0  0
 13 14  1  0  0  0  0
 14 15  1  0  0  0  0
 15 16  1  0  0  0  0
 16 17  4  0  0  0  0
 17 18  4  0  0  0  0
 18 19  4  0  0  0  0
 19 20  4  0  0  0  0
 20 21  1  0  0  0  0
 20 22  4  0  0  0  0
 16 22  4  0  0  0  0
 13 23  4  0  0  0  0
  9 23  4  0  0  0  0
  8 24  4  0  0  0  0
 24 25  4  0  0  0  0
 25 26  4  0  0  0  0
  6 26  4  0  0  0  0
 26 27  4  0  0  0  0
  4 27  4  0  0  0  0
M  END
>  <CdId>
358900

>  <Mol Weight>
392.901

>  <Formula>
C22H17ClN2OS

>  <cmpd_chemblid>
CHEMBL597574

>  <std_type>
Ki

>  <std_value>
900.0

>  <std_unit>
nM

>  <target_id>
CHEMBL2016

>  <target_name>
Coagulation factor IX

>  <organism>
Homo sapiens

>  <target_type>
SINGLE PROTEIN

$$$$

  Mrv0541 08052111042D          

 30 34  0  0  0  0            999 V2000
   -0.3025   -0.4039    0.0000 C   0  0  0  0  0  0  0  0  0  0  0  0
   -0.0476   -1.1885    0.0000 C   0  0  0  0  0  0  0  0  0  0  0  0
   -0.5996   -1.8016    0.0000 C   0  0  0  0  0  0  0  0  0  0  0  0
   -0.3446   -2.5862    0.0000 C   0  0  0  0  0  0  0  0  0  0  0  0
    0.4623   -2.7578    0.0000 C   0  0  0  0  0  0  0  0  0  0  0  0
    0.7173   -3.5424    0.0000 O   0  0  0  0  0  0  0  0  0  0  0  0
    1.0144   -2.1447    0.0000 C   0  0  0  0  0  0  0  0  0  0  0  0
    1.8394   -2.1447    0.0000 C   0  0  0  0  0  0  0  0  0  0  0  0
    2.0943   -1.3601    0.0000 C   0  0  0  0  0  0  0  0  0  0  0  0
    1.4269   -0.8751    0.0000 N   0  0  0  0  0  0  0  0  0  0  0  0
    0.7594   -1.3601    0.0000 N   0  0  0  0  0  0  0  0  0  0  0  0
    2.9013   -1.1885    0.0000 C   0  0  0  0  0  0  0  0  0  0  0  0
    3.4533   -1.8016    0.0000 C   0  0  0  0  0  0  0  0  0  0  0  0
    3.1984   -2.5862    0.0000 C   0  0  0  0  0  0  0  0  0  0  0  0
    4.0153   -2.7011    0.0000 C   0  0  0  0  0  0  0  0  0  0  0  0
    3.2272   -3.4107    0.0000 N   0  0  0  0  0  0  0  0  0  0  0  0
    3.9556   -3.7981    0.0000 C   0  0  0  0  0  0  0  0  0  0  0  0
    4.6552   -3.3609    0.0000 O   0  0  0  0  0  0  0  0  0  0  0  0
    3.9844   -4.6226    0.0000 C   0  0  0  0  0  0  0  0  0  0  0  0
    4.7128   -5.0099    0.0000 C   0  0  0  0  0  0  0  0  0  0  0  0
    4.7416   -5.8344    0.0000 C   0  0  0  0  0  0  0  0  0  0  0  0
    4.0420   -6.2715    0.0000 C   0  0  0  0  0  0  0  0  0  0  0  0
    4.0708   -7.0960    0.0000 N   0  0  0  0  0  0  0  0  0  0  0  0
    4.7547   -7.5574    0.0000 C   0  0  0  0  0  0  0  0  0  0  0  0
    4.5273   -8.3504    0.0000 C   0  0  0  0  0  0  0  0  0  0  0  0
    3.7028   -8.3792    0.0000 N   0  0  0  0  0  0  0  0  0  0  0  0
    3.4206   -7.6040    0.0000 N   0  0  0  0  0  0  0  0  0  0  0  0
    3.3135   -5.8842    0.0000 C   0  0  0  0  0  0  0  0  0  0  0  0
    3.2847   -5.0597    0.0000 C   0  0  0  0  0  0  0  0  0  0  0  0
    2.3914   -2.7578    0.0000 C   0  0  0  0  0  0  0  0  0  0  0  0
  1  2  1  0  0  0  0
  2  3  4  0  0  0  0
  3  4  4  0  0  0  0
  4  5  4  0  0  0  0
  5  6  1  0  0  0  0
  5  7  4  0  0  0  0
  7  8  4  0  0  0  0
  8  9  4  0  0  0  0
  9 10  4  0  0  0  0
 10 11  4  0  0  0  0
  2 11  4  0  0  0  0
  7 11  4  0  0  0  0
  9 12  1  0  0  0  0
 12 13  1  0  0  0  0
 13 14  1  0  0  0  0
 14 15  1  0  0  0  0
 14 16  1  0  0  0  0
 16 17  1  0  0  0  0
 17 18  2  0  0  0  0
 17 19  1  0  0  0  0
 19 20  4  0  0  0  0
 20 21  4  0  0  0  0
 21 22  4  0  0  0  0
 22 23  1  0  0  0  0
 23 24  4  0  0  0  0
 24 25  4  0  0  0  0
 25 26  4  0  0  0  0
 26 27  4  0  0  0  0
 23 27  4  0  0  0  0
 22 28  4  0  0  0  0
 28 29  4  0  0  0  0
 19 29  4  0  0  0  0
 14 30  1  0  0  0  0
  8 30  1  0  0  0  0
M  END
>  <CdId>
358901

>  <Mol Weight>
402.4491

>  <Formula>
C22H22N6O2

>  <cmpd_chemblid>
CHEMBL3423045

>  <std_type>
Ki

>  <std_value>
462.0

>  <std_unit>
nM

>  <target_id>
CHEMBL2016

>  <target_name>
Coagulation factor IX

>  <organism>
Homo sapiens

>  <target_type>
SINGLE PROTEIN

$$$$

  Mrv0541 08052111042D          

 39 43  0  0  1  0            999 V2000
    8.6329   -2.2539    0.0000 C   0  0  0  0  0  0  0  0  0  0  0  0
    8.2204   -1.5395    0.0000 O   0  0  0  0  0  0  0  0  0  0  0  0
    7.3954   -1.5395    0.0000 C   0  0  0  0  0  0  0  0  0  0  0  0
    6.9829   -2.2539    0.0000 O   0  0  0  0  0  0  0  0  0  0  0  0
    6.9829   -0.8250    0.0000 N   0  0  0  0  0  0  0  0  0  0  0  0
    6.1579   -0.8250    0.0000 C   0  0  0  0  0  0  0  0  0  0  0  0
    5.7454   -0.1105    0.0000 C   0  0  0  0  0  0  0  0  0  0  0  0
    4.9204   -0.1105    0.0000 C   0  0  0  0  0  0  0  0  0  0  0  0
    4.5079   -0.8250    0.0000 C   0  0  0  0  0  0  0  0  0  0  0  0
    4.9204   -1.5395    0.0000 C   0  0  0  0  0  0  0  0  0  0  0  0
    5.7454   -1.5395    0.0000 C   0  0  0  0  0  0  0  0  0  0  0  0
    4.5079   -2.2539    0.0000 N   0  0  0  0  0  0  0  0  0  0  0  0
    4.9204   -2.9684    0.0000 C   0  0  0  0  0  0  0  0  0  0  0  0
    5.7454   -2.9684    0.0000 O   0  0  0  0  0  0  0  0  0  0  0  0
    4.5079   -3.6829    0.0000 C   0  0  2  0  0  0  0  0  0  0  0  0
    4.9204   -4.3974    0.0000 C   0  0  0  0  0  0  0  0  0  0  0  0
    3.6829   -3.6829    0.0000 C   0  0  0  0  0  0  0  0  0  0  0  0
    3.2704   -2.9684    0.0000 C   0  0  0  0  0  0  0  0  0  0  0  0
    2.4454   -2.9684    0.0000 C   0  0  0  0  0  0  0  0  0  0  0  0
    2.0329   -2.2539    0.0000 C   0  0  2  0  0  0  0  0  0  0  0  0
    1.2079   -2.2539    0.0000 N   0  0  0  0  0  0  0  0  0  0  0  0
    0.7954   -2.9684    0.0000 C   0  0  0  0  0  0  0  0  0  0  0  0
   -0.0296   -2.9684    0.0000 C   0  0  0  0  0  0  0  0  0  0  0  0
   -0.4421   -2.2539    0.0000 C   0  0  0  0  0  0  0  0  0  0  0  0
   -1.2671   -2.2539    0.0000 C   0  0  0  0  0  0  0  0  0  0  0  0
   -1.6796   -2.9684    0.0000 C   0  0  0  0  0  0  0  0  0  0  0  0
   -2.5046   -2.9684    0.0000 C   0  0  0  0  0  0  0  0  0  0  0  0
   -2.9171   -2.2539    0.0000 N   0  0  0  0  0  0  0  0  0  0  0  0
   -2.5046   -1.5395    0.0000 C   0  0  0  0  0  0  0  0  0  0  0  0
   -1.6796   -1.5395    0.0000 C   0  0  0  0  0  0  0  0  0  0  0  0
   -0.0296   -1.5395    0.0000 C   0  0  0  0  0  0  0  0  0  0  0  0
    0.7954   -1.5395    0.0000 C   0  0  0  0  0  0  0  0  0  0  0  0
    1.2079   -0.8250    0.0000 O   0  0  0  0  0  0  0  0  0  0  0  0
    2.4454   -1.5395    0.0000 C   0  0  0  0  0  0  0  0  0  0  0  0
    3.2704   -1.5395    0.0000 C   0  0  0  0  0  0  0  0  0  0  0  0
    3.6829   -0.8250    0.0000 C   0  0  0  0  0  0  0  0  0  0  0  0
    3.2704   -0.1105    0.0000 C   0  0  0  0  0  0  0  0  0  0  0  0
    2.4454   -0.1105    0.0000 C   0  0  0  0  0  0  0  0  0  0  0  0
    2.0329   -0.8250    0.0000 N   0  0  0  0  0  0  0  0  0  0  0  0
  1  2  1  0  0  0  0
  2  3  1  0  0  0  0
  3  4  2  0  0  0  0
  3  5  1  0  0  0  0
  5  6  1  0  0  0  0
  6  7  4  0  0  0  0
  7  8  4  0  0  0  0
  8  9  4  0  0  0  0
  9 10  4  0  0  0  0
 10 11  4  0  0  0  0
  6 11  4  0  0  0  0
 10 12  1  0  0  0  0
 12 13  1  0  0  0  0
 13 14  2  0  0  0  0
 13 15  1  0  0  0  0
 15 16  1  6  0  0  0
 15 17  1  0  0  0  0
 17 18  1  0  0  0  0
 18 19  1  0  0  0  0
 19 20  1  0  0  0  0
 20 21  1  6  0  0  0
 21 22  1  0  0  0  0
 22 23  1  0  0  0  0
 23 24  1  0  0  0  0
 24 25  1  0  0  0  0
 25 26  1  0  0  0  0
 26 27  1  0  0  0  0
 27 28  1  0  0  0  0
 28 29  1  0  0  0  0
 29 30  1  0  0  0  0
 25 30  1  0  0  0  0
 24 31  2  0  0  0  0
 31 32  1  0  0  0  0
 21 32  1  0  0  0  0
 32 33  2  0  0  0  0
 20 34  1  0  0  0  0
 34 35  4  0  0  0  0
 35 36  4  0  0  0  0
  9 36  1  0  0  0  0
 36 37  4  0  0  0  0
 37 38  4  0  0  0  0
 38 39  4  0  0  0  0
 34 39  4  0  0  0  0
M  END
>  <CdId>
358902

>  <Mol Weight>
531.6459

>  <Formula>
C30H37N5O4

>  <cmpd_chemblid>
CHEMBL4110705

>  <std_type>
Ki

>  <std_value>
4.88

>  <std_unit>
nM

>  <target_id>
CHEMBL2016

>  <target_name>
Coagulation factor IX

>  <organism>
Homo sapiens

>  <target_type>
SINGLE PROTEIN

$$$$

  Mrv0541 08052111042D          

 23 26  0  0  0  0            999 V2000
    0.7192   -4.8047    0.0000 N   0  0  0  0  0  0  0  0  0  0  0  0
    1.1317   -4.0902    0.0000 C   0  0  0  0  0  0  0  0  0  0  0  0
    0.7192   -3.3758    0.0000 N   0  0  0  0  0  0  0  0  0  0  0  0
    1.9567   -4.0902    0.0000 C   0  0  0  0  0  0  0  0  0  0  0  0
    2.4417   -3.4228    0.0000 C   0  0  0  0  0  0  0  0  0  0  0  0
    3.2263   -3.6777    0.0000 C   0  0  0  0  0  0  0  0  0  0  0  0
    3.9408   -3.2652    0.0000 C   0  0  0  0  0  0  0  0  0  0  0  0
    3.9408   -2.4402    0.0000 O   0  0  0  0  0  0  0  0  0  0  0  0
    3.2263   -2.0277    0.0000 C   0  0  0  0  0  0  0  0  0  0  0  0
    3.2263   -1.2027    0.0000 C   0  0  0  0  0  0  0  0  0  0  0  0
    2.5589   -0.7178    0.0000 N   0  0  0  0  0  0  0  0  0  0  0  0
    2.8138    0.0668    0.0000 C   0  0  0  0  0  0  0  0  0  0  0  0
    2.4013    0.7813    0.0000 C   0  0  0  0  0  0  0  0  0  0  0  0
    2.8138    1.4958    0.0000 C   0  0  0  0  0  0  0  0  0  0  0  0
    3.6388    1.4958    0.0000 C   0  0  0  0  0  0  0  0  0  0  0  0
    4.0513    0.7813    0.0000 C   0  0  0  0  0  0  0  0  0  0  0  0
    3.6388    0.0668    0.0000 C   0  0  0  0  0  0  0  0  0  0  0  0
    3.8937   -0.7178    0.0000 S   0  0  0  0  0  0  0  0  0  0  0  0
    4.6552   -3.6777    0.0000 C   0  0  0  0  0  0  0  0  0  0  0  0
    4.6552   -4.5027    0.0000 C   0  0  0  0  0  0  0  0  0  0  0  0
    3.9408   -4.9152    0.0000 C   0  0  0  0  0  0  0  0  0  0  0  0
    3.2263   -4.5027    0.0000 C   0  0  0  0  0  0  0  0  0  0  0  0
    2.4417   -4.7577    0.0000 S   0  0  0  0  0  0  0  0  0  0  0  0
  1  2  2  0  0  0  0
  2  3  1  0  0  0  0
  2  4  1  0  0  0  0
  4  5  4  0  0  0  0
  5  6  4  0  0  0  0
  6  7  4  0  0  0  0
  7  8  1  0  0  0  0
  8  9  1  0  0  0  0
  9 10  1  0  0  0  0
 10 11  4  0  0  0  0
 11 12  4  0  0  0  0
 12 13  4  0  0  0  0
 13 14  4  0  0  0  0
 14 15  4  0  0  0  0
 15 16  4  0  0  0  0
 16 17  4  0  0  0  0
 12 17  4  0  0  0  0
 17 18  4  0  0  0  0
 10 18  4  0  0  0  0
  7 19  4  0  0  0  0
 19 20  4  0  0  0  0
 20 21  4  0  0  0  0
 21 22  4  0  0  0  0
  6 22  4  0  0  0  0
 22 23  4  0  0  0  0
  4 23  4  0  0  0  0
M  END
>  <CdId>
358903

>  <Mol Weight>
339.435

>  <Formula>
C17H13N3OS2

>  <cmpd_chemblid>
CHEMBL611376

>  <std_type>
Ki

>  <std_value>
800.0

>  <std_unit>
nM

>  <target_id>
CHEMBL2016

>  <target_name>
Coagulation factor IX

>  <organism>
Homo sapiens

>  <target_type>
SINGLE PROTEIN

$$$$

  Mrv0541 08052111042D          

 39 43  0  0  1  0            999 V2000
    3.9849    3.9849    0.0000 C   0  0  0  0  0  0  0  0  0  0  0  0
    4.3974    3.2704    0.0000 C   0  0  2  0  0  0  0  0  0  0  0  0
    5.2224    3.2704    0.0000 C   0  0  0  0  0  0  0  0  0  0  0  0
    5.6349    2.5559    0.0000 C   0  0  0  0  0  0  0  0  0  0  0  0
    6.4599    2.5559    0.0000 C   0  0  0  0  0  0  0  0  0  0  0  0
    6.8724    1.8414    0.0000 C   0  0  2  0  0  0  0  0  0  0  0  0
    7.6974    1.8414    0.0000 N   0  0  0  0  0  0  0  0  0  0  0  0
    8.1099    2.5559    0.0000 C   0  0  0  0  0  0  0  0  0  0  0  0
    8.9349    2.5559    0.0000 C   0  0  0  0  0  0  0  0  0  0  0  0
    9.3474    1.8414    0.0000 C   0  0  0  0  0  0  0  0  0  0  0  0
   10.1724    1.8414    0.0000 C   0  0  0  0  0  0  0  0  0  0  0  0
   10.5849    2.5559    0.0000 C   0  0  0  0  0  0  0  0  0  0  0  0
   10.1724    3.2704    0.0000 F   0  0  0  0  0  0  0  0  0  0  0  0
   11.4099    2.5559    0.0000 C   0  0  0  0  0  0  0  0  0  0  0  0
   11.8224    1.8414    0.0000 C   0  0  0  0  0  0  0  0  0  0  0  0
   11.4099    1.1270    0.0000 C   0  0  0  0  0  0  0  0  0  0  0  0
   11.8224    0.4125    0.0000 Cl  0  0  0  0  0  0  0  0  0  0  0  0
   10.5849    1.1270    0.0000 C   0  0  0  0  0  0  0  0  0  0  0  0
   10.1724    0.4125    0.0000 F   0  0  0  0  0  0  0  0  0  0  0  0
    8.9349    1.1270    0.0000 C   0  0  0  0  0  0  0  0  0  0  0  0
    8.1099    1.1270    0.0000 C   0  0  0  0  0  0  0  0  0  0  0  0
    7.6974    0.4125    0.0000 O   0  0  0  0  0  0  0  0  0  0  0  0
    6.4599    1.1270    0.0000 C   0  0  0  0  0  0  0  0  0  0  0  0
    5.6349    1.1270    0.0000 C   0  0  0  0  0  0  0  0  0  0  0  0
    5.2224    0.4125    0.0000 C   0  0  0  0  0  0  0  0  0  0  0  0
    5.6349   -0.3020    0.0000 C   0  0  0  0  0  0  0  0  0  0  0  0
    6.4599   -0.3020    0.0000 C   0  0  0  0  0  0  0  0  0  0  0  0
    6.8724    0.4125    0.0000 N   0  0  0  0  0  0  0  0  0  0  0  0
    4.3974    0.4125    0.0000 C   0  0  0  0  0  0  0  0  0  0  0  0
    3.9849   -0.3020    0.0000 C   0  0  0  0  0  0  0  0  0  0  0  0
    3.1599   -0.3020    0.0000 C   0  0  0  0  0  0  0  0  0  0  0  0
    2.7474   -1.0164    0.0000 C   0  0  0  0  0  0  0  0  0  0  0  0
    2.3349   -1.7309    0.0000 N   0  0  0  0  0  0  0  0  0  0  0  0
    2.7474    0.4125    0.0000 C   0  0  0  0  0  0  0  0  0  0  0  0
    3.1599    1.1270    0.0000 C   0  0  0  0  0  0  0  0  0  0  0  0
    3.9849    1.1270    0.0000 C   0  0  0  0  0  0  0  0  0  0  0  0
    4.3974    1.8414    0.0000 N   0  0  0  0  0  0  0  0  0  0  0  0
    3.9849    2.5559    0.0000 C   0  0  0  0  0  0  0  0  0  0  0  0
    3.1599    2.5559    0.0000 O   0  0  0  0  0  0  0  0  0  0  0  0
  2  1  1  6  0  0  0
  2  3  1  0  0  0  0
  3  4  1  0  0  0  0
  4  5  1  0  0  0  0
  5  6  1  0  0  0  0
  6  7  1  6  0  0  0
  7  8  1  0  0  0  0
  8  9  1  0  0  0  0
  9 10  1  0  0  0  0
 10 11  1  0  0  0  0
 11 12  4  0  0  0  0
 12 13  1  0  0  0  0
 12 14  4  0  0  0  0
 14 15  4  0  0  0  0
 15 16  4  0  0  0  0
 16 17  1  0  0  0  0
 16 18  4  0  0  0  0
 11 18  4  0  0  0  0
 18 19  1  0  0  0  0
 10 20  2  0  0  0  0
 20 21  1  0  0  0  0
  7 21  1  0  0  0  0
 21 22  2  0  0  0  0
  6 23  1  0  0  0  0
 23 24  4  0  0  0  0
 24 25  4  0  0  0  0
 25 26  4  0  0  0  0
 26 27  4  0  0  0  0
 27 28  4  0  0  0  0
 23 28  4  0  0  0  0
 25 29  1  0  0  0  0
 29 30  4  0  0  0  0
 30 31  4  0  0  0  0
 31 32  1  0  0  0  0
 32 33  3  0  0  0  0
 31 34  4  0  0  0  0
 34 35  4  0  0  0  0
 35 36  4  0  0  0  0
 29 36  4  0  0  0  0
 36 37  1  0  0  0  0
 37 38  1  0  0  0  0
  2 38  1  0  0  0  0
 38 39  2  0  0  0  0
M  END
>  <CdId>
358904

>  <Mol Weight>
546.995

>  <Formula>
C30H25ClF2N4O2

>  <cmpd_chemblid>
CHEMBL4114297

>  <std_type>
Ki

>  <std_value>
36.17

>  <std_unit>
nM

>  <target_id>
CHEMBL2016

>  <target_name>
Coagulation factor IX

>  <organism>
Homo sapiens

>  <target_type>
SINGLE PROTEIN

$$$$

  Mrv0541 08052111042D          

 29 31  0  0  1  0            999 V2000
    0.2779   -0.4730    0.0000 C   0  0  0  0  0  0  0  0  0  0  0  0
    0.2779   -1.2980    0.0000 C   0  0  0  0  0  0  0  0  0  0  0  0
    0.9923   -1.7105    0.0000 C   0  0  0  0  0  0  0  0  0  0  0  0
    0.9923   -2.5355    0.0000 C   0  0  0  0  0  0  0  0  0  0  0  0
    0.2779   -2.9480    0.0000 C   0  0  0  0  0  0  0  0  0  0  0  0
    0.2779   -3.7730    0.0000 N   0  0  0  0  0  0  0  0  0  0  0  0
    1.0212   -4.1310    0.0000 C   0  0  0  0  0  0  0  0  0  0  0  0
    1.2047   -4.9353    0.0000 C   0  0  0  0  0  0  0  0  0  0  0  0
    0.6904   -5.5803    0.0000 C   0  0  0  0  0  0  0  0  0  0  0  0
   -0.1346   -5.5803    0.0000 O   0  0  0  0  0  0  0  0  0  0  0  0
   -0.6490   -4.9353    0.0000 C   0  0  2  0  0  0  0  0  0  0  0  0
   -1.4533   -5.1189    0.0000 C   0  0  1  0  0  0  0  0  0  0  0  0
   -1.6965   -5.9072    0.0000 O   0  0  0  0  0  0  0  0  0  0  0  0
   -2.0145   -4.5141    0.0000 C   0  0  0  0  0  0  0  0  0  0  0  0
   -1.7713   -3.7257    0.0000 O   0  0  0  0  0  0  0  0  0  0  0  0
   -2.8188   -4.6977    0.0000 N   0  0  0  0  0  0  0  0  0  0  0  0
   -3.3799   -4.0929    0.0000 C   0  0  0  0  0  0  0  0  0  0  0  0
   -4.1843   -4.2765    0.0000 C   0  0  0  0  0  0  0  0  0  0  0  0
   -4.7454   -3.6717    0.0000 C   0  0  0  0  0  0  0  0  0  0  0  0
   -4.5022   -2.8834    0.0000 C   0  0  0  0  0  0  0  0  0  0  0  0
   -5.0634   -2.2786    0.0000 C   0  0  0  0  0  0  0  0  0  0  0  0
   -5.8677   -2.4622    0.0000 N   0  0  0  0  0  0  0  0  0  0  0  0
   -4.8202   -1.4903    0.0000 N   0  0  0  0  0  0  0  0  0  0  0  0
   -3.6979   -2.6998    0.0000 C   0  0  0  0  0  0  0  0  0  0  0  0
   -3.1368   -3.3046    0.0000 C   0  0  0  0  0  0  0  0  0  0  0  0
   -0.4654   -4.1310    0.0000 C   0  0  0  0  0  0  0  0  0  0  0  0
   -1.1105   -3.6166    0.0000 O   0  0  0  0  0  0  0  0  0  0  0  0
   -0.4366   -2.5355    0.0000 C   0  0  0  0  0  0  0  0  0  0  0  0
   -0.4366   -1.7105    0.0000 C   0  0  0  0  0  0  0  0  0  0  0  0
  1  2  1  0  0  0  0
  2  3  4  0  0  0  0
  3  4  4  0  0  0  0
  4  5  4  0  0  0  0
  5  6  1  0  0  0  0
  6  7  1  0  0  0  0
  7  8  1  0  0  0  0
  8  9  1  0  0  0  0
  9 10  1  0  0  0  0
 10 11  1  0  0  0  0
 11 12  1  6  0  0  0
 12 13  1  1  0  0  0
 12 14  1  0  0  0  0
 14 15  2  0  0  0  0
 14 16  1  0  0  0  0
 16 17  1  0  0  0  0
 17 18  4  0  0  0  0
 18 19  4  0  0  0  0
 19 20  4  0  0  0  0
 20 21  1  0  0  0  0
 21 22  2  0  0  0  0
 21 23  1  0  0  0  0
 20 24  4  0  0  0  0
 24 25  4  0  0  0  0
 17 25  4  0  0  0  0
 11 26  1  0  0  0  0
  6 26  1  0  0  0  0
 26 27  2  0  0  0  0
  5 28  4  0  0  0  0
 28 29  4  0  0  0  0
  2 29  4  0  0  0  0
M  END
>  <CdId>
358905

>  <Mol Weight>
396.4397

>  <Formula>
C21H24N4O4

>  <cmpd_chemblid>
CHEMBL3658393

>  <std_type>
Ki

>  <std_value>
15.0

>  <std_unit>
nM

>  <target_id>
CHEMBL2016

>  <target_name>
Coagulation factor IX

>  <organism>
Homo sapiens

>  <target_type>
SINGLE PROTEIN

$$$$

  Mrv0541 08052111042D          

 32 35  0  0  0  0            999 V2000
    2.8579    0.0000    0.0000 C   0  0  0  0  0  0  0  0  0  0  0  0
    3.5724   -0.4125    0.0000 O   0  0  0  0  0  0  0  0  0  0  0  0
    4.2868    0.0000    0.0000 C   0  0  0  0  0  0  0  0  0  0  0  0
    4.2868    0.8250    0.0000 O   0  0  0  0  0  0  0  0  0  0  0  0
    5.0013   -0.4125    0.0000 C   0  0  0  0  0  0  0  0  0  0  0  0
    5.7158    0.0000    0.0000 C   0  0  0  0  0  0  0  0  0  0  0  0
    6.4302   -0.4125    0.0000 O   0  0  0  0  0  0  0  0  0  0  0  0
    6.4302   -1.2375    0.0000 C   0  0  0  0  0  0  0  0  0  0  0  0
    7.1447   -1.6500    0.0000 C   0  0  0  0  0  0  0  0  0  0  0  0
    7.1447   -2.4750    0.0000 C   0  0  0  0  0  0  0  0  0  0  0  0
    6.4302   -2.8875    0.0000 C   0  0  0  0  0  0  0  0  0  0  0  0
    5.7158   -2.4750    0.0000 C   0  0  0  0  0  0  0  0  0  0  0  0
    5.0013   -2.8875    0.0000 C   0  0  0  0  0  0  0  0  0  0  0  0
    5.0013   -3.7125    0.0000 C   0  0  0  0  0  0  0  0  0  0  0  0
    4.2868   -4.1250    0.0000 C   0  0  0  0  0  0  0  0  0  0  0  0
    3.5724   -3.7125    0.0000 C   0  0  0  0  0  0  0  0  0  0  0  0
    2.7877   -3.9674    0.0000 S   0  0  0  0  0  0  0  0  0  0  0  0
    2.3028   -3.3000    0.0000 C   0  0  0  0  0  0  0  0  0  0  0  0
    1.4778   -3.3000    0.0000 C   0  0  0  0  0  0  0  0  0  0  0  0
    1.0653   -4.0145    0.0000 N   0  0  0  0  0  0  0  0  0  0  0  0
    1.0653   -2.5855    0.0000 N   0  0  0  0  0  0  0  0  0  0  0  0
    2.7877   -2.6326    0.0000 C   0  0  0  0  0  0  0  0  0  0  0  0
    3.5724   -2.8875    0.0000 C   0  0  0  0  0  0  0  0  0  0  0  0
    4.2868   -2.4750    0.0000 C   0  0  0  0  0  0  0  0  0  0  0  0
    5.7158   -1.6500    0.0000 C   0  0  0  0  0  0  0  0  0  0  0  0
    5.7158    0.8250    0.0000 C   0  0  0  0  0  0  0  0  0  0  0  0
    5.0013    1.2375    0.0000 C   0  0  0  0  0  0  0  0  0  0  0  0
    5.0013    2.0625    0.0000 C   0  0  0  0  0  0  0  0  0  0  0  0
    5.7158    2.4750    0.0000 C   0  0  0  0  0  0  0  0  0  0  0  0
    5.7158    3.3000    0.0000 Cl  0  0  0  0  0  0  0  0  0  0  0  0
    6.4302    2.0625    0.0000 C   0  0  0  0  0  0  0  0  0  0  0  0
    6.4302    1.2375    0.0000 C   0  0  0  0  0  0  0  0  0  0  0  0
  1  2  1  0  0  0  0
  2  3  1  0  0  0  0
  3  4  2  0  0  0  0
  3  5  1  0  0  0  0
  5  6  1  0  0  0  0
  6  7  1  0  0  0  0
  7  8  1  0  0  0  0
  8  9  4  0  0  0  0
  9 10  4  0  0  0  0
 10 11  4  0  0  0  0
 11 12  4  0  0  0  0
 12 13  1  0  0  0  0
 13 14  4  0  0  0  0
 14 15  4  0  0  0  0
 15 16  4  0  0  0  0
 16 17  4  0  0  0  0
 17 18  4  0  0  0  0
 18 19  1  0  0  0  0
 19 20  2  0  0  0  0
 19 21  1  0  0  0  0
 18 22  4  0  0  0  0
 22 23  4  0  0  0  0
 16 23  4  0  0  0  0
 23 24  4  0  0  0  0
 13 24  4  0  0  0  0
 12 25  4  0  0  0  0
  8 25  4  0  0  0  0
  6 26  1  0  0  0  0
 26 27  4  0  0  0  0
 27 28  4  0  0  0  0
 28 29  4  0  0  0  0
 29 30  1  0  0  0  0
 29 31  4  0  0  0  0
 31 32  4  0  0  0  0
 26 32  4  0  0  0  0
M  END
>  <CdId>
358907

>  <Mol Weight>
464.964

>  <Formula>
C25H21ClN2O3S

>  <cmpd_chemblid>
CHEMBL596740

>  <std_type>
Ki

>  <std_value>
28.0

>  <std_unit>
nM

>  <target_id>
CHEMBL2016

>  <target_name>
Coagulation factor IX

>  <organism>
Homo sapiens

>  <target_type>
SINGLE PROTEIN

$$$$

  Mrv0541 08052111042D          

 42 46  0  0  1  0            999 V2000
    7.9579   -3.3953    0.0000 C   0  0  0  0  0  0  0  0  0  0  0  0
    7.5249   -2.6931    0.0000 O   0  0  0  0  0  0  0  0  0  0  0  0
    6.7002   -2.7170    0.0000 C   0  0  0  0  0  0  0  0  0  0  0  0
    6.3086   -3.4431    0.0000 O   0  0  0  0  0  0  0  0  0  0  0  0
    6.2672   -2.0147    0.0000 N   0  0  0  0  0  0  0  0  0  0  0  0
    5.4425   -2.0386    0.0000 C   0  0  0  0  0  0  0  0  0  0  0  0
    5.0095   -1.3364    0.0000 C   0  0  0  0  0  0  0  0  0  0  0  0
    4.1849   -1.3603    0.0000 C   0  0  0  0  0  0  0  0  0  0  0  0
    3.7932   -2.0864    0.0000 C   0  0  0  0  0  0  0  0  0  0  0  0
    4.2262   -2.7886    0.0000 C   0  0  0  0  0  0  0  0  0  0  0  0
    5.0509   -2.7647    0.0000 C   0  0  0  0  0  0  0  0  0  0  0  0
    5.0479   -3.1211    0.0000 C   0  0  0  0  0  0  0  0  0  0  0  0
    5.7353   -2.6649    0.0000 O   0  0  0  0  0  0  0  0  0  0  0  0
    5.0360   -3.9460    0.0000 N   0  0  0  0  0  0  0  0  0  0  0  0
    4.2478   -4.1895    0.0000 C   0  0  0  0  0  0  0  0  0  0  0  0
    3.7519   -4.9440    0.0000 C   0  0  0  0  0  0  0  0  0  0  0  0
    2.9270   -4.9320    0.0000 C   0  0  0  0  0  0  0  0  0  0  0  0
    2.5248   -4.2117    0.0000 C   0  0  0  0  0  0  0  0  0  0  0  0
    1.6999   -4.1997    0.0000 C   0  0  0  0  0  0  0  0  0  0  0  0
    1.2978   -3.4794    0.0000 C   0  0  2  0  0  0  0  0  0  0  0  0
    0.4729   -3.4674    0.0000 N   0  0  0  0  0  0  0  0  0  0  0  0
    0.0501   -4.1758    0.0000 C   0  0  0  0  0  0  0  0  0  0  0  0
   -0.7748   -4.1639    0.0000 C   0  0  0  0  0  0  0  0  0  0  0  0
   -1.1769   -3.4435    0.0000 C   0  0  0  0  0  0  0  0  0  0  0  0
   -2.0018   -3.4316    0.0000 C   0  0  0  0  0  0  0  0  0  0  0  0
   -2.4246   -4.1400    0.0000 C   0  0  0  0  0  0  0  0  0  0  0  0
   -2.0225   -4.8604    0.0000 F   0  0  0  0  0  0  0  0  0  0  0  0
   -3.2495   -4.1281    0.0000 C   0  0  0  0  0  0  0  0  0  0  0  0
   -3.6517   -3.4077    0.0000 C   0  0  0  0  0  0  0  0  0  0  0  0
   -3.2289   -2.6993    0.0000 C   0  0  0  0  0  0  0  0  0  0  0  0
   -3.6310   -1.9789    0.0000 Cl  0  0  0  0  0  0  0  0  0  0  0  0
   -2.4040   -2.7112    0.0000 C   0  0  0  0  0  0  0  0  0  0  0  0
   -1.9812   -2.0028    0.0000 F   0  0  0  0  0  0  0  0  0  0  0  0
   -0.7541   -2.7351    0.0000 C   0  0  0  0  0  0  0  0  0  0  0  0
    0.0708   -2.7470    0.0000 C   0  0  0  0  0  0  0  0  0  0  0  0
    0.4936   -2.0386    0.0000 O   0  0  0  0  0  0  0  0  0  0  0  0
    1.7206   -2.7709    0.0000 C   0  0  0  0  0  0  0  0  0  0  0  0
    2.5455   -2.7829    0.0000 C   0  0  0  0  0  0  0  0  0  0  0  0
    2.9683   -2.0744    0.0000 C   0  0  0  0  0  0  0  0  0  0  0  0
    2.5662   -1.3541    0.0000 C   0  0  0  0  0  0  0  0  0  0  0  0
    1.7413   -1.3421    0.0000 C   0  0  0  0  0  0  0  0  0  0  0  0
    1.3185   -2.0506    0.0000 N   0  0  0  0  0  0  0  0  0  0  0  0
  1  2  1  0  0  0  0
  2  3  1  0  0  0  0
  3  4  2  0  0  0  0
  3  5  1  0  0  0  0
  5  6  1  0  0  0  0
  6  7  4  0  0  0  0
  7  8  4  0  0  0  0
  8  9  4  0  0  0  0
  9 10  4  0  0  0  0
 10 11  4  0  0  0  0
  6 11  4  0  0  0  0
 10 12  1  0  0  0  0
 12 13  2  0  0  0  0
 12 14  1  0  0  0  0
 14 15  1  0  0  0  0
 15 16  1  0  0  0  0
 16 17  1  0  0  0  0
 17 18  2  0  0  0  0
 18 19  1  0  0  0  0
 19 20  1  0  0  0  0
 20 21  1  6  0  0  0
 21 22  1  0  0  0  0
 22 23  1  0  0  0  0
 23 24  1  0  0  0  0
 24 25  1  0  0  0  0
 25 26  4  0  0  0  0
 26 27  1  0  0  0  0
 26 28  4  0  0  0  0
 28 29  4  0  0  0  0
 29 30  4  0  0  0  0
 30 31  1  0  0  0  0
 30 32  4  0  0  0  0
 25 32  4  0  0  0  0
 32 33  1  0  0  0  0
 24 34  2  0  0  0  0
 34 35  1  0  0  0  0
 21 35  1  0  0  0  0
 35 36  2  0  0  0  0
 20 37  1  0  0  0  0
 37 38  4  0  0  0  0
 38 39  4  0  0  0  0
  9 39  1  0  0  0  0
 39 40  4  0  0  0  0
 40 41  4  0  0  0  0
 41 42  4  0  0  0  0
 37 42  4  0  0  0  0
M  END
>  <CdId>
358908

>  <Mol Weight>
593.02

>  <Formula>
C31H27ClF2N4O4

>  <cmpd_chemblid>
CHEMBL4107613

>  <std_type>
Ki

>  <std_value>
264.1

>  <std_unit>
nM

>  <target_id>
CHEMBL2016

>  <target_name>
Coagulation factor IX

>  <organism>
Homo sapiens

>  <target_type>
SINGLE PROTEIN

$$$$

  Mrv0541 08052111042D          

 44 49  0  0  1  0            999 V2000
    5.0783   -1.3437    0.0000 C   0  0  0  0  0  0  0  0  0  0  0  0
    4.3024   -1.0634    0.0000 C   0  0  0  0  0  0  0  0  0  0  0  0
    4.0730   -0.2709    0.0000 N   0  0  0  0  0  0  0  0  0  0  0  0
    3.2485   -0.2441    0.0000 C   0  0  0  0  0  0  0  0  0  0  0  0
    2.7167    0.3866    0.0000 C   0  0  0  0  0  0  0  0  0  0  0  0
    1.9045    0.2414    0.0000 C   0  0  0  0  0  0  0  0  0  0  0  0
    1.6242   -0.5346    0.0000 C   0  0  0  0  0  0  0  0  0  0  0  0
    2.1561   -1.1653    0.0000 C   0  0  0  0  0  0  0  0  0  0  0  0
    2.9682   -1.0201    0.0000 C   0  0  0  0  0  0  0  0  0  0  0  0
    3.6195   -1.5264    0.0000 C   0  0  0  0  0  0  0  0  0  0  0  0
    3.5927   -2.3510    0.0000 C   0  0  0  0  0  0  0  0  0  0  0  0
    4.2934   -2.7865    0.0000 O   0  0  0  0  0  0  0  0  0  0  0  0
    2.8652   -2.7400    0.0000 O   0  0  0  0  0  0  0  0  0  0  0  0
    0.8121   -0.6798    0.0000 C   0  0  0  0  0  0  0  0  0  0  0  0
    0.5318   -1.4557    0.0000 C   0  0  0  0  0  0  0  0  0  0  0  0
   -0.2803   -1.6009    0.0000 C   0  0  0  0  0  0  0  0  0  0  0  0
   -0.8121   -0.9702    0.0000 N   0  0  0  0  0  0  0  0  0  0  0  0
   -0.5318   -0.1943    0.0000 C   0  0  0  0  0  0  0  0  0  0  0  0
    0.2803   -0.0491    0.0000 C   0  0  0  0  0  0  0  0  0  0  0  0
   -1.0636    0.4364    0.0000 C   0  0  1  0  0  0  0  0  0  0  0  0
   -1.8758    0.2912    0.0000 N   0  0  0  0  0  0  0  0  0  0  0  0
   -2.1561   -0.4847    0.0000 C   0  0  0  0  0  0  0  0  0  0  0  0
   -2.9682   -0.6299    0.0000 C   0  0  0  0  0  0  0  0  0  0  0  0
   -3.5000    0.0008    0.0000 C   0  0  0  0  0  0  0  0  0  0  0  0
   -4.3121   -0.1444    0.0000 C   0  0  0  0  0  0  0  0  0  0  0  0
   -4.5924   -0.9204    0.0000 C   0  0  0  0  0  0  0  0  0  0  0  0
   -4.0606   -1.5511    0.0000 F   0  0  0  0  0  0  0  0  0  0  0  0
   -5.4045   -1.0656    0.0000 C   0  0  0  0  0  0  0  0  0  0  0  0
   -5.9364   -0.4349    0.0000 C   0  0  0  0  0  0  0  0  0  0  0  0
   -5.6561    0.3410    0.0000 C   0  0  0  0  0  0  0  0  0  0  0  0
   -6.1879    0.9718    0.0000 Cl  0  0  0  0  0  0  0  0  0  0  0  0
   -4.8439    0.4863    0.0000 C   0  0  0  0  0  0  0  0  0  0  0  0
   -4.5636    1.2622    0.0000 F   0  0  0  0  0  0  0  0  0  0  0  0
   -3.2197    0.7767    0.0000 C   0  0  0  0  0  0  0  0  0  0  0  0
   -2.4076    0.9219    0.0000 C   0  0  0  0  0  0  0  0  0  0  0  0
   -2.1273    1.6978    0.0000 O   0  0  0  0  0  0  0  0  0  0  0  0
   -0.7833    1.2123    0.0000 C   0  0  0  0  0  0  0  0  0  0  0  0
    0.0288    1.3576    0.0000 C   0  0  0  0  0  0  0  0  0  0  0  0
    0.3091    2.1335    0.0000 C   0  0  0  0  0  0  0  0  0  0  0  0
    1.1212    2.2787    0.0000 C   0  0  1  0  0  0  0  0  0  0  0  0
    1.4015    3.0546    0.0000 C   0  0  0  0  0  0  0  0  0  0  0  0
    1.6530    1.6480    0.0000 C   0  0  0  0  0  0  0  0  0  0  0  0
    2.4651    1.7932    0.0000 O   0  0  0  0  0  0  0  0  0  0  0  0
    1.3727    0.8721    0.0000 N   0  0  0  0  0  0  0  0  0  0  0  0
  1  2  1  0  0  0  0
  2  3  4  0  0  0  0
  3  4  4  0  0  0  0
  4  5  4  0  0  0  0
  5  6  4  0  0  0  0
  6  7  4  0  0  0  0
  7  8  4  0  0  0  0
  8  9  4  0  0  0  0
  4  9  4  0  0  0  0
  9 10  4  0  0  0  0
  2 10  4  0  0  0  0
 10 11  1  0  0  0  0
 11 12  2  0  0  0  0
 11 13  1  0  0  0  0
  7 14  1  0  0  0  0
 14 15  4  0  0  0  0
 15 16  4  0  0  0  0
 16 17  4  0  0  0  0
 17 18  4  0  0  0  0
 18 19  4  0  0  0  0
 14 19  4  0  0  0  0
 18 20  1  0  0  0  0
 20 21  1  1  0  0  0
 21 22  1  0  0  0  0
 22 23  1  0  0  0  0
 23 24  1  0  0  0  0
 24 25  1  0  0  0  0
 25 26  4  0  0  0  0
 26 27  1  0  0  0  0
 26 28  4  0  0  0  0
 28 29  4  0  0  0  0
 29 30  4  0  0  0  0
 30 31  1  0  0  0  0
 30 32  4  0  0  0  0
 25 32  4  0  0  0  0
 32 33  1  0  0  0  0
 24 34  2  0  0  0  0
 34 35  1  0  0  0  0
 21 35  1  0  0  0  0
 35 36  2  0  0  0  0
 20 37  1  0  0  0  0
 37 38  1  0  0  0  0
 38 39  1  0  0  0  0
 39 40  1  0  0  0  0
 40 41  1  1  0  0  0
 40 42  1  0  0  0  0
 42 43  2  0  0  0  0
 42 44  1  0  0  0  0
  6 44  1  0  0  0  0
M  STY  1   1 DAT
M  SAL   1  1   3
M  SDT   1 MRV_IMPLICIT_H                                        
M  SDD   1     0.0000    0.0000    DR    ALL  0       0  
M  SED   1 IMPL_H1
M  END
>  <CdId>
358909

>  <Mol Weight>
619.058

>  <Formula>
C33H29ClF2N4O4

>  <cmpd_chemblid>
CHEMBL4109568

>  <std_type>
Ki

>  <std_value>
0.06

>  <std_unit>
nM

>  <target_id>
CHEMBL2016

>  <target_name>
Coagulation factor IX

>  <organism>
Homo sapiens

>  <target_type>
SINGLE PROTEIN

$$$$

  Mrv0541 08052111042D          

 37 41  0  0  1  0            999 V2000
    3.9849    3.9849    0.0000 C   0  0  0  0  0  0  0  0  0  0  0  0
    4.3974    3.2704    0.0000 C   0  0  2  0  0  0  0  0  0  0  0  0
    5.2224    3.2704    0.0000 C   0  0  0  0  0  0  0  0  0  0  0  0
    5.6349    2.5559    0.0000 C   0  0  0  0  0  0  0  0  0  0  0  0
    6.4599    2.5559    0.0000 C   0  0  0  0  0  0  0  0  0  0  0  0
    6.8724    1.8414    0.0000 C   0  0  2  0  0  0  0  0  0  0  0  0
    7.6974    1.8414    0.0000 N   0  0  0  0  0  0  0  0  0  0  0  0
    8.1099    2.5559    0.0000 C   0  0  0  0  0  0  0  0  0  0  0  0
    8.9349    2.5559    0.0000 C   0  0  0  0  0  0  0  0  0  0  0  0
    9.3474    1.8414    0.0000 C   0  0  0  0  0  0  0  0  0  0  0  0
   10.1724    1.8414    0.0000 C   0  0  0  0  0  0  0  0  0  0  0  0
   10.5849    2.5559    0.0000 C   0  0  0  0  0  0  0  0  0  0  0  0
   10.1724    3.2704    0.0000 F   0  0  0  0  0  0  0  0  0  0  0  0
   11.4099    2.5559    0.0000 C   0  0  0  0  0  0  0  0  0  0  0  0
   11.8224    1.8414    0.0000 C   0  0  0  0  0  0  0  0  0  0  0  0
   11.4099    1.1270    0.0000 C   0  0  0  0  0  0  0  0  0  0  0  0
   11.8224    0.4125    0.0000 Cl  0  0  0  0  0  0  0  0  0  0  0  0
   10.5849    1.1270    0.0000 C   0  0  0  0  0  0  0  0  0  0  0  0
   10.1724    0.4125    0.0000 F   0  0  0  0  0  0  0  0  0  0  0  0
    8.9349    1.1270    0.0000 C   0  0  0  0  0  0  0  0  0  0  0  0
    8.1099    1.1270    0.0000 C   0  0  0  0  0  0  0  0  0  0  0  0
    7.6974    0.4125    0.0000 O   0  0  0  0  0  0  0  0  0  0  0  0
    6.4599    1.1270    0.0000 C   0  0  0  0  0  0  0  0  0  0  0  0
    5.6349    1.1270    0.0000 C   0  0  0  0  0  0  0  0  0  0  0  0
    5.2224    0.4125    0.0000 C   0  0  0  0  0  0  0  0  0  0  0  0
    5.6349   -0.3020    0.0000 C   0  0  0  0  0  0  0  0  0  0  0  0
    6.4599   -0.3020    0.0000 C   0  0  0  0  0  0  0  0  0  0  0  0
    6.8724    0.4125    0.0000 N   0  0  0  0  0  0  0  0  0  0  0  0
    4.3974    0.4125    0.0000 C   0  0  0  0  0  0  0  0  0  0  0  0
    3.9849   -0.3020    0.0000 C   0  0  0  0  0  0  0  0  0  0  0  0
    3.1599   -0.3020    0.0000 C   0  0  0  0  0  0  0  0  0  0  0  0
    2.7474    0.4125    0.0000 C   0  0  0  0  0  0  0  0  0  0  0  0
    3.1599    1.1270    0.0000 C   0  0  0  0  0  0  0  0  0  0  0  0
    3.9849    1.1270    0.0000 C   0  0  0  0  0  0  0  0  0  0  0  0
    4.3974    1.8414    0.0000 N   0  0  0  0  0  0  0  0  0  0  0  0
    3.9849    2.5559    0.0000 C   0  0  0  0  0  0  0  0  0  0  0  0
    3.1599    2.5559    0.0000 O   0  0  0  0  0  0  0  0  0  0  0  0
  2  1  1  6  0  0  0
  2  3  1  0  0  0  0
  3  4  1  0  0  0  0
  4  5  1  0  0  0  0
  5  6  1  0  0  0  0
  6  7  1  6  0  0  0
  7  8  1  0  0  0  0
  8  9  1  0  0  0  0
  9 10  1  0  0  0  0
 10 11  1  0  0  0  0
 11 12  4  0  0  0  0
 12 13  1  0  0  0  0
 12 14  4  0  0  0  0
 14 15  4  0  0  0  0
 15 16  4  0  0  0  0
 16 17  1  0  0  0  0
 16 18  4  0  0  0  0
 11 18  4  0  0  0  0
 18 19  1  0  0  0  0
 10 20  2  0  0  0  0
 20 21  1  0  0  0  0
  7 21  1  0  0  0  0
 21 22  2  0  0  0  0
  6 23  1  0  0  0  0
 23 24  4  0  0  0  0
 24 25  4  0  0  0  0
 25 26  4  0  0  0  0
 26 27  4  0  0  0  0
 27 28  4  0  0  0  0
 23 28  4  0  0  0  0
 25 29  1  0  0  0  0
 29 30  4  0  0  0  0
 30 31  4  0  0  0  0
 31 32  4  0  0  0  0
 32 33  4  0  0  0  0
 33 34  4  0  0  0  0
 29 34  4  0  0  0  0
 34 35  1  0  0  0  0
 35 36  1  0  0  0  0
  2 36  1  0  0  0  0
 36 37  2  0  0  0  0
M  END
>  <CdId>
358910

>  <Mol Weight>
521.985

>  <Formula>
C29H26ClF2N3O2

>  <cmpd_chemblid>
CHEMBL4107051

>  <std_type>
Ki

>  <std_value>
13.68

>  <std_unit>
nM

>  <target_id>
CHEMBL2016

>  <target_name>
Coagulation factor IX

>  <organism>
Homo sapiens

>  <target_type>
SINGLE PROTEIN

$$$$

  Mrv0541 08052111042D          

 43 47  0  0  1  0            999 V2000
    8.6329   -2.2539    0.0000 C   0  0  0  0  0  0  0  0  0  0  0  0
    8.2204   -1.5395    0.0000 O   0  0  0  0  0  0  0  0  0  0  0  0
    7.3954   -1.5395    0.0000 C   0  0  0  0  0  0  0  0  0  0  0  0
    6.9829   -2.2539    0.0000 O   0  0  0  0  0  0  0  0  0  0  0  0
    6.9829   -0.8250    0.0000 N   0  0  0  0  0  0  0  0  0  0  0  0
    6.1579   -0.8250    0.0000 C   0  0  0  0  0  0  0  0  0  0  0  0
    5.7454   -0.1105    0.0000 C   0  0  0  0  0  0  0  0  0  0  0  0
    4.9204   -0.1105    0.0000 C   0  0  0  0  0  0  0  0  0  0  0  0
    4.5079   -0.8250    0.0000 C   0  0  0  0  0  0  0  0  0  0  0  0
    4.9204   -1.5395    0.0000 C   0  0  0  0  0  0  0  0  0  0  0  0
    5.7454   -1.5395    0.0000 C   0  0  0  0  0  0  0  0  0  0  0  0
    4.5079   -2.2539    0.0000 N   0  0  0  0  0  0  0  0  0  0  0  0
    4.9204   -2.9684    0.0000 C   0  0  0  0  0  0  0  0  0  0  0  0
    5.7454   -2.9684    0.0000 O   0  0  0  0  0  0  0  0  0  0  0  0
    4.5079   -3.6829    0.0000 C   0  0  2  0  0  0  0  0  0  0  0  0
    4.9204   -4.3974    0.0000 C   0  0  0  0  0  0  0  0  0  0  0  0
    3.6829   -3.6829    0.0000 C   0  0  0  0  0  0  0  0  0  0  0  0
    3.2704   -2.9684    0.0000 C   0  0  0  0  0  0  0  0  0  0  0  0
    2.4454   -2.9684    0.0000 C   0  0  0  0  0  0  0  0  0  0  0  0
    2.0329   -2.2539    0.0000 C   0  0  2  0  0  0  0  0  0  0  0  0
    1.2079   -2.2539    0.0000 N   0  0  0  0  0  0  0  0  0  0  0  0
    0.7954   -2.9684    0.0000 C   0  0  0  0  0  0  0  0  0  0  0  0
   -0.0296   -2.9684    0.0000 C   0  0  0  0  0  0  0  0  0  0  0  0
   -0.4421   -2.2539    0.0000 C   0  0  0  0  0  0  0  0  0  0  0  0
   -1.2671   -2.2539    0.0000 C   0  0  0  0  0  0  0  0  0  0  0  0
   -1.6796   -2.9684    0.0000 C   0  0  0  0  0  0  0  0  0  0  0  0
   -1.2671   -3.6829    0.0000 C   0  0  0  0  0  0  0  0  0  0  0  0
   -0.8546   -4.3974    0.0000 N   0  0  0  0  0  0  0  0  0  0  0  0
   -2.5046   -2.9684    0.0000 C   0  0  0  0  0  0  0  0  0  0  0  0
   -2.9171   -2.2539    0.0000 C   0  0  0  0  0  0  0  0  0  0  0  0
   -2.5046   -1.5395    0.0000 C   0  0  0  0  0  0  0  0  0  0  0  0
   -2.9171   -0.8250    0.0000 Cl  0  0  0  0  0  0  0  0  0  0  0  0
   -1.6796   -1.5395    0.0000 C   0  0  0  0  0  0  0  0  0  0  0  0
   -1.2671   -0.8250    0.0000 F   0  0  0  0  0  0  0  0  0  0  0  0
   -0.0296   -1.5395    0.0000 C   0  0  0  0  0  0  0  0  0  0  0  0
    0.7954   -1.5395    0.0000 C   0  0  0  0  0  0  0  0  0  0  0  0
    1.2079   -0.8250    0.0000 O   0  0  0  0  0  0  0  0  0  0  0  0
    2.4454   -1.5395    0.0000 C   0  0  0  0  0  0  0  0  0  0  0  0
    3.2704   -1.5395    0.0000 C   0  0  0  0  0  0  0  0  0  0  0  0
    3.6829   -0.8250    0.0000 C   0  0  0  0  0  0  0  0  0  0  0  0
    3.2704   -0.1105    0.0000 C   0  0  0  0  0  0  0  0  0  0  0  0
    2.4454   -0.1105    0.0000 C   0  0  0  0  0  0  0  0  0  0  0  0
    2.0329   -0.8250    0.0000 N   0  0  0  0  0  0  0  0  0  0  0  0
  1  2  1  0  0  0  0
  2  3  1  0  0  0  0
  3  4  2  0  0  0  0
  3  5  1  0  0  0  0
  5  6  1  0  0  0  0
  6  7  4  0  0  0  0
  7  8  4  0  0  0  0
  8  9  4  0  0  0  0
  9 10  4  0  0  0  0
 10 11  4  0  0  0  0
  6 11  4  0  0  0  0
 10 12  1  0  0  0  0
 12 13  1  0  0  0  0
 13 14  2  0  0  0  0
 13 15  1  0  0  0  0
 15 16  1  6  0  0  0
 15 17  1  0  0  0  0
 17 18  1  0  0  0  0
 18 19  1  0  0  0  0
 19 20  1  0  0  0  0
 20 21  1  6  0  0  0
 21 22  1  0  0  0  0
 22 23  1  0  0  0  0
 23 24  1  0  0  0  0
 24 25  1  0  0  0  0
 25 26  4  0  0  0  0
 26 27  1  0  0  0  0
 27 28  3  0  0  0  0
 26 29  4  0  0  0  0
 29 30  4  0  0  0  0
 30 31  4  0  0  0  0
 31 32  1  0  0  0  0
 31 33  4  0  0  0  0
 25 33  4  0  0  0  0
 33 34  1  0  0  0  0
 24 35  2  0  0  0  0
 35 36  1  0  0  0  0
 21 36  1  0  0  0  0
 36 37  2  0  0  0  0
 20 38  1  0  0  0  0
 38 39  4  0  0  0  0
 39 40  4  0  0  0  0
  9 40  1  0  0  0  0
 40 41  4  0  0  0  0
 41 42  4  0  0  0  0
 42 43  4  0  0  0  0
 38 43  4  0  0  0  0
M  END
>  <CdId>
358911

>  <Mol Weight>
602.055

>  <Formula>
C32H29ClFN5O4

>  <cmpd_chemblid>
CHEMBL4107149

>  <std_type>
Ki

>  <std_value>
0.03

>  <std_unit>
nM

>  <target_id>
CHEMBL2016

>  <target_name>
Coagulation factor IX

>  <organism>
Homo sapiens

>  <target_type>
SINGLE PROTEIN

$$$$

  Mrv0541 08052111042D          

 41 45  0  0  1  0            999 V2000
    0.0000    0.8250    0.0000 C   0  0  0  0  0  0  0  0  0  0  0  0
    0.0000    0.0000    0.0000 O   0  0  0  0  0  0  0  0  0  0  0  0
    0.7145   -0.4125    0.0000 C   0  0  0  0  0  0  0  0  0  0  0  0
    1.4289    0.0000    0.0000 C   0  0  0  0  0  0  0  0  0  0  0  0
    2.1434   -0.4125    0.0000 C   0  0  0  0  0  0  0  0  0  0  0  0
    2.8579    0.0000    0.0000 C   0  0  0  0  0  0  0  0  0  0  0  0
    2.8579    0.8250    0.0000 N   0  0  0  0  0  0  0  0  0  0  0  0
    3.5724   -0.4125    0.0000 N   0  0  0  0  0  0  0  0  0  0  0  0
    3.5724   -1.2375    0.0000 C   0  0  0  0  0  0  0  0  0  0  0  0
    2.8579   -1.6500    0.0000 C   0  0  0  0  0  0  0  0  0  0  0  0
    2.1434   -1.2375    0.0000 C   0  0  0  0  0  0  0  0  0  0  0  0
    1.4289   -1.6500    0.0000 C   0  0  0  0  0  0  0  0  0  0  0  0
    0.7145   -1.2375    0.0000 C   0  0  0  0  0  0  0  0  0  0  0  0
    0.0000   -1.6500    0.0000 C   0  0  0  0  0  0  0  0  0  0  0  0
    0.0000   -2.4750    0.0000 C   0  0  2  0  0  0  0  0  0  0  0  0
   -0.7145   -2.8875    0.0000 C   0  0  0  0  0  0  0  0  0  0  0  0
   -1.4289   -2.4750    0.0000 O   0  0  0  0  0  0  0  0  0  0  0  0
   -0.7145   -3.7125    0.0000 O   0  0  0  0  0  0  0  0  0  0  0  0
   -1.4289   -4.1250    0.0000 C   0  0  0  0  0  0  0  0  0  0  0  0
   -1.5152   -4.9455    0.0000 C   0  0  0  0  0  0  0  0  0  0  0  0
   -2.3221   -5.1170    0.0000 C   0  0  0  0  0  0  0  0  0  0  0  0
   -2.7346   -4.4025    0.0000 C   0  0  0  0  0  0  0  0  0  0  0  0
   -2.1826   -3.7894    0.0000 C   0  0  0  0  0  0  0  0  0  0  0  0
    0.7145   -2.8875    0.0000 N   0  0  0  0  0  0  0  0  0  0  0  0
    1.4681   -2.5519    0.0000 C   0  0  0  0  0  0  0  0  0  0  0  0
    2.0202   -3.1650    0.0000 C   0  0  0  0  0  0  0  0  0  0  0  0
    1.6077   -3.8795    0.0000 C   0  0  2  0  0  0  0  0  0  0  0  0
    1.9432   -4.6332    0.0000 N   0  0  0  0  0  0  0  0  0  0  0  0
    2.7637   -4.7194    0.0000 S   0  0  0  0  0  0  0  0  0  0  0  0
    2.6775   -5.5399    0.0000 O   0  0  0  0  0  0  0  0  0  0  0  0
    2.8500   -3.8989    0.0000 O   0  0  0  0  0  0  0  0  0  0  0  0
    3.5842   -4.8057    0.0000 C   0  0  0  0  0  0  0  0  0  0  0  0
    4.1362   -4.1926    0.0000 C   0  0  0  0  0  0  0  0  0  0  0  0
    4.8899   -4.5281    0.0000 N   0  0  0  0  0  0  0  0  0  0  0  0
    4.8037   -5.3486    0.0000 C   0  0  0  0  0  0  0  0  0  0  0  0
    5.4168   -5.9006    0.0000 N   0  0  0  0  0  0  0  0  0  0  0  0
    6.2014   -5.6457    0.0000 C   0  0  0  0  0  0  0  0  0  0  0  0
    5.2452   -6.7076    0.0000 C   0  0  0  0  0  0  0  0  0  0  0  0
    3.9967   -5.5201    0.0000 S   0  0  0  0  0  0  0  0  0  0  0  0
    0.8007   -3.7080    0.0000 C   0  0  0  0  0  0  0  0  0  0  0  0
    0.1876   -4.2600    0.0000 O   0  0  0  0  0  0  0  0  0  0  0  0
  1  2  1  0  0  0  0
  2  3  1  0  0  0  0
  3  4  4  0  0  0  0
  4  5  4  0  0  0  0
  5  6  4  0  0  0  0
  6  7  1  0  0  0  0
  6  8  4  0  0  0  0
  8  9  4  0  0  0  0
  9 10  4  0  0  0  0
 10 11  4  0  0  0  0
  5 11  4  0  0  0  0
 11 12  4  0  0  0  0
 12 13  4  0  0  0  0
  3 13  4  0  0  0  0
 13 14  1  0  0  0  0
 14 15  1  0  0  0  0
 15 16  1  0  0  0  0
 16 17  2  0  0  0  0
 16 18  1  0  0  0  0
 18 19  1  0  0  0  0
 19 20  1  0  0  0  0
 20 21  1  0  0  0  0
 21 22  1  0  0  0  0
 22 23  1  0  0  0  0
 19 23  1  0  0  0  0
 15 24  1  1  0  0  0
 24 25  1  0  0  0  0
 25 26  1  0  0  0  0
 26 27  1  0  0  0  0
 27 28  1  6  0  0  0
 28 29  1  0  0  0  0
 29 30  2  0  0  0  0
 29 31  2  0  0  0  0
 29 32  1  0  0  0  0
 32 33  4  0  0  0  0
 33 34  4  0  0  0  0
 34 35  4  0  0  0  0
 35 36  1  0  0  0  0
 36 37  1  0  0  0  0
 36 38  1  0  0  0  0
 35 39  4  0  0  0  0
 32 39  4  0  0  0  0
 27 40  1  0  0  0  0
 24 40  1  0  0  0  0
 40 41  2  0  0  0  0
M  END
>  <CdId>
358912

>  <Mol Weight>
602.725

>  <Formula>
C27H34N6O6S2

>  <cmpd_chemblid>
CHEMBL3958963

>  <std_type>
Ki

>  <std_value>
750.0

>  <std_unit>
nM

>  <target_id>
CHEMBL2016

>  <target_name>
Coagulation factor IX

>  <organism>
Homo sapiens

>  <target_type>
SINGLE PROTEIN

$$$$

  Mrv0541 08052111042D          

 37 40  0  0  0  0            999 V2000
   -5.7158   -7.4250    0.0000 C   0  0  0  0  0  0  0  0  0  0  0  0
   -5.0013   -7.0125    0.0000 N   0  0  0  0  0  0  0  0  0  0  0  0
   -4.2868   -7.4250    0.0000 C   0  0  0  0  0  0  0  0  0  0  0  0
   -5.0013   -6.1875    0.0000 C   0  0  0  0  0  0  0  0  0  0  0  0
   -4.2868   -5.7750    0.0000 C   0  0  0  0  0  0  0  0  0  0  0  0
   -4.2868   -4.9500    0.0000 O   0  0  0  0  0  0  0  0  0  0  0  0
   -3.5724   -4.5375    0.0000 C   0  0  0  0  0  0  0  0  0  0  0  0
   -3.5724   -3.7125    0.0000 C   0  0  0  0  0  0  0  0  0  0  0  0
   -2.8579   -3.3000    0.0000 C   0  0  0  0  0  0  0  0  0  0  0  0
   -2.1434   -3.7125    0.0000 C   0  0  0  0  0  0  0  0  0  0  0  0
   -1.4289   -3.3000    0.0000 N   0  0  0  0  0  0  0  0  0  0  0  0
   -0.7145   -3.7125    0.0000 C   0  0  0  0  0  0  0  0  0  0  0  0
   -0.7145   -4.5375    0.0000 O   0  0  0  0  0  0  0  0  0  0  0  0
    0.0000   -3.3000    0.0000 O   0  0  0  0  0  0  0  0  0  0  0  0
    0.7145   -3.7125    0.0000 C   0  0  0  0  0  0  0  0  0  0  0  0
    1.4289   -3.3000    0.0000 C   0  0  0  0  0  0  0  0  0  0  0  0
    2.1434   -3.7125    0.0000 O   0  0  0  0  0  0  0  0  0  0  0  0
    2.8579   -3.3000    0.0000 C   0  0  0  0  0  0  0  0  0  0  0  0
    2.8579   -2.4750    0.0000 C   0  0  0  0  0  0  0  0  0  0  0  0
    3.5724   -2.0625    0.0000 C   0  0  0  0  0  0  0  0  0  0  0  0
    4.2868   -2.4750    0.0000 C   0  0  0  0  0  0  0  0  0  0  0  0
    4.2868   -3.3000    0.0000 C   0  0  0  0  0  0  0  0  0  0  0  0
    4.8999   -3.8520    0.0000 S   0  0  0  0  0  0  0  0  0  0  0  0
    4.5644   -4.6057    0.0000 C   0  0  0  0  0  0  0  0  0  0  0  0
    4.9769   -5.3202    0.0000 C   0  0  0  0  0  0  0  0  0  0  0  0
    5.8019   -5.3202    0.0000 N   0  0  0  0  0  0  0  0  0  0  0  0
    4.5644   -6.0346    0.0000 N   0  0  0  0  0  0  0  0  0  0  0  0
    3.7439   -4.5195    0.0000 C   0  0  0  0  0  0  0  0  0  0  0  0
    3.5724   -3.7125    0.0000 C   0  0  0  0  0  0  0  0  0  0  0  0
    1.4289   -2.4750    0.0000 C   0  0  0  0  0  0  0  0  0  0  0  0
    0.7145   -2.0625    0.0000 C   0  0  0  0  0  0  0  0  0  0  0  0
    0.7145   -1.2375    0.0000 C   0  0  0  0  0  0  0  0  0  0  0  0
    1.4289   -0.8250    0.0000 C   0  0  0  0  0  0  0  0  0  0  0  0
    2.1434   -1.2375    0.0000 C   0  0  0  0  0  0  0  0  0  0  0  0
    2.1434   -2.0625    0.0000 C   0  0  0  0  0  0  0  0  0  0  0  0
   -2.1434   -4.5375    0.0000 C   0  0  0  0  0  0  0  0  0  0  0  0
   -2.8579   -4.9500    0.0000 C   0  0  0  0  0  0  0  0  0  0  0  0
  1  2  1  0  0  0  0
  2  3  1  0  0  0  0
  2  4  1  0  0  0  0
  4  5  1  0  0  0  0
  5  6  1  0  0  0  0
  6  7  1  0  0  0  0
  7  8  4  0  0  0  0
  8  9  4  0  0  0  0
  9 10  4  0  0  0  0
 10 11  1  0  0  0  0
 11 12  1  0  0  0  0
 12 13  2  0  0  0  0
 12 14  1  0  0  0  0
 14 15  1  0  0  0  0
 15 16  1  0  0  0  0
 16 17  1  0  0  0  0
 17 18  1  0  0  0  0
 18 19  4  0  0  0  0
 19 20  4  0  0  0  0
 20 21  4  0  0  0  0
 21 22  4  0  0  0  0
 22 23  4  0  0  0  0
 23 24  4  0  0  0  0
 24 25  1  0  0  0  0
 25 26  2  0  0  0  0
 25 27  1  0  0  0  0
 24 28  4  0  0  0  0
 28 29  4  0  0  0  0
 18 29  4  0  0  0  0
 22 29  4  0  0  0  0
 16 30  1  0  0  0  0
 30 31  4  0  0  0  0
 31 32  4  0  0  0  0
 32 33  4  0  0  0  0
 33 34  4  0  0  0  0
 34 35  4  0  0  0  0
 30 35  4  0  0  0  0
 10 36  4  0  0  0  0
 36 37  4  0  0  0  0
  7 37  4  0  0  0  0
M  END
>  <CdId>
358913

>  <Mol Weight>
518.627

>  <Formula>
C28H30N4O4S

>  <cmpd_chemblid>
CHEMBL597143

>  <std_type>
Ki

>  <std_value>
4.0

>  <std_unit>
nM

>  <target_id>
CHEMBL2016

>  <target_name>
Coagulation factor IX

>  <organism>
Homo sapiens

>  <target_type>
SINGLE PROTEIN

$$$$

  Mrv0541 08052111042D          

 39 44  0  0  1  0            999 V2000
    4.7674    0.7556    0.0000 C   0  0  0  0  0  0  0  0  0  0  0  0
    3.9604    0.5840    0.0000 C   0  0  0  0  0  0  0  0  0  0  0  0
    3.7054   -0.2006    0.0000 C   0  0  0  0  0  0  0  0  0  0  0  0
    2.8985   -0.3721    0.0000 C   0  0  0  0  0  0  0  0  0  0  0  0
    2.3464    0.2410    0.0000 C   0  0  0  0  0  0  0  0  0  0  0  0
    2.6014    1.0256    0.0000 C   0  0  0  0  0  0  0  0  0  0  0  0
    3.4084    1.1971    0.0000 C   0  0  0  0  0  0  0  0  0  0  0  0
    1.9339    1.5105    0.0000 C   0  0  0  0  0  0  0  0  0  0  0  0
    1.9339    2.3355    0.0000 C   0  0  0  0  0  0  0  0  0  0  0  0
    1.2195    2.7480    0.0000 N   0  0  0  0  0  0  0  0  0  0  0  0
    1.2195    3.5730    0.0000 O   0  0  0  0  0  0  0  0  0  0  0  0
    1.2665    1.0256    0.0000 C   0  0  0  0  0  0  0  0  0  0  0  0
    1.5214    0.2410    0.0000 N   0  0  0  0  0  0  0  0  0  0  0  0
    0.9694   -0.3721    0.0000 C   0  0  0  0  0  0  0  0  0  0  0  0
    0.1624   -0.2006    0.0000 C   0  0  1  0  0  0  0  0  0  0  0  0
    0.1336   -1.0251    0.0000 N   0  0  0  0  0  0  0  0  0  0  0  0
    0.8333   -1.4623    0.0000 C   0  0  0  0  0  0  0  0  0  0  0  0
    1.5617   -1.0750    0.0000 O   0  0  0  0  0  0  0  0  0  0  0  0
    0.8045   -2.2868    0.0000 C   0  0  0  0  0  0  0  0  0  0  0  0
    1.5041   -2.7240    0.0000 C   0  0  0  0  0  0  0  0  0  0  0  0
    2.2326   -2.3366    0.0000 Cl  0  0  0  0  0  0  0  0  0  0  0  0
    1.4753   -3.5485    0.0000 C   0  0  0  0  0  0  0  0  0  0  0  0
    0.7469   -3.9358    0.0000 C   0  0  0  0  0  0  0  0  0  0  0  0
    0.7181   -4.7603    0.0000 N   0  0  0  0  0  0  0  0  0  0  0  0
    1.3682   -5.2682    0.0000 C   0  0  0  0  0  0  0  0  0  0  0  0
    1.0861   -6.0434    0.0000 N   0  0  0  0  0  0  0  0  0  0  0  0
    0.2616   -6.0146    0.0000 N   0  0  0  0  0  0  0  0  0  0  0  0
    0.0342   -5.2216    0.0000 C   0  0  0  0  0  0  0  0  0  0  0  0
    0.0473   -3.4986    0.0000 C   0  0  0  0  0  0  0  0  0  0  0  0
    0.0761   -2.6741    0.0000 C   0  0  0  0  0  0  0  0  0  0  0  0
   -0.6236   -2.2369    0.0000 Cl  0  0  0  0  0  0  0  0  0  0  0  0
   -0.6545   -0.3154    0.0000 C   0  0  0  0  0  0  0  0  0  0  0  0
   -0.9636   -1.0803    0.0000 C   0  0  0  0  0  0  0  0  0  0  0  0
   -1.7806   -1.1952    0.0000 C   0  0  0  0  0  0  0  0  0  0  0  0
   -2.2885   -0.5450    0.0000 C   0  0  0  0  0  0  0  0  0  0  0  0
   -1.9794    0.2199    0.0000 C   0  0  0  0  0  0  0  0  0  0  0  0
   -1.1625    0.3347    0.0000 C   0  0  0  0  0  0  0  0  0  0  0  0
   -0.0925    0.5840    0.0000 C   0  0  0  0  0  0  0  0  0  0  0  0
    0.4595    1.1971    0.0000 C   0  0  0  0  0  0  0  0  0  0  0  0
  1  2  1  0  0  0  0
  2  3  4  0  0  0  0
  3  4  4  0  0  0  0
  4  5  4  0  0  0  0
  5  6  4  0  0  0  0
  6  7  4  0  0  0  0
  2  7  4  0  0  0  0
  6  8  4  0  0  0  0
  8  9  1  0  0  0  0
  9 10  2  0  0  0  0
 10 11  1  0  0  0  0
  8 12  4  0  0  0  0
 12 13  4  0  0  0  0
  5 13  4  0  0  0  0
 13 14  1  0  0  0  0
 14 15  1  0  0  0  0
 15 16  1  6  0  0  0
 16 17  1  0  0  0  0
 17 18  2  0  0  0  0
 17 19  1  0  0  0  0
 19 20  4  0  0  0  0
 20 21  1  0  0  0  0
 20 22  4  0  0  0  0
 22 23  4  0  0  0  0
 23 24  1  0  0  0  0
 24 25  4  0  0  0  0
 25 26  4  0  0  0  0
 26 27  4  0  0  0  0
 27 28  4  0  0  0  0
 24 28  4  0  0  0  0
 23 29  4  0  0  0  0
 29 30  4  0  0  0  0
 19 30  4  0  0  0  0
 30 31  1  0  0  0  0
 15 32  1  1  0  0  0
 32 33  4  0  0  0  0
 33 34  4  0  0  0  0
 34 35  4  0  0  0  0
 35 36  4  0  0  0  0
 36 37  4  0  0  0  0
 32 37  4  0  0  0  0
 15 38  1  0  0  0  0
 38 39  1  0  0  0  0
 12 39  1  0  0  0  0
M  END
>  <CdId>
358914

>  <Mol Weight>
559.446

>  <Formula>
C29H24Cl2N6O2

>  <cmpd_chemblid>
CHEMBL3628962

>  <std_type>
Ki

>  <std_value>
2.4

>  <std_unit>
nM

>  <target_id>
CHEMBL2016

>  <target_name>
Coagulation factor IX

>  <organism>
Homo sapiens

>  <target_type>
SINGLE PROTEIN

$$$$

  Mrv0541 08052111042D          

 39 43  0  0  1  0            999 V2000
   -1.6796   -1.5395    0.0000 C   0  0  0  0  0  0  0  0  0  0  0  0
   -1.2671   -0.8250    0.0000 C   0  0  0  0  0  0  0  0  0  0  0  0
   -0.4421   -0.8250    0.0000 O   0  0  0  0  0  0  0  0  0  0  0  0
   -1.6796   -0.1105    0.0000 C   0  0  0  0  0  0  0  0  0  0  0  0
   -2.5046   -0.1105    0.0000 C   0  0  0  0  0  0  0  0  0  0  0  0
   -2.9171    0.6039    0.0000 C   0  0  0  0  0  0  0  0  0  0  0  0
   -2.5046    1.3184    0.0000 C   0  0  0  0  0  0  0  0  0  0  0  0
   -2.9171    2.0329    0.0000 Cl  0  0  0  0  0  0  0  0  0  0  0  0
   -1.6796    1.3184    0.0000 C   0  0  0  0  0  0  0  0  0  0  0  0
   -1.2671    2.0329    0.0000 F   0  0  0  0  0  0  0  0  0  0  0  0
   -1.2671    0.6039    0.0000 C   0  0  0  0  0  0  0  0  0  0  0  0
   -0.4421    0.6039    0.0000 C   0  0  0  0  0  0  0  0  0  0  0  0
   -0.0296    1.3184    0.0000 C   0  0  0  0  0  0  0  0  0  0  0  0
    0.7954    1.3184    0.0000 C   0  0  0  0  0  0  0  0  0  0  0  0
    1.2079    2.0329    0.0000 O   0  0  0  0  0  0  0  0  0  0  0  0
    1.2079    0.6039    0.0000 N   0  0  0  0  0  0  0  0  0  0  0  0
    2.0329    0.6039    0.0000 C   0  0  1  0  0  0  0  0  0  0  0  0
    2.4454    1.3184    0.0000 C   0  0  0  0  0  0  0  0  0  0  0  0
    3.2704    1.3184    0.0000 C   0  0  0  0  0  0  0  0  0  0  0  0
    3.6829    2.0329    0.0000 C   0  0  0  0  0  0  0  0  0  0  0  0
    4.5079    2.0329    0.0000 C   0  0  1  0  0  0  0  0  0  0  0  0
    4.9204    2.7474    0.0000 C   0  0  0  0  0  0  0  0  0  0  0  0
    4.9204    1.3184    0.0000 C   0  0  0  0  0  0  0  0  0  0  0  0
    5.7454    1.3184    0.0000 O   0  0  0  0  0  0  0  0  0  0  0  0
    4.5079    0.6039    0.0000 N   0  0  0  0  0  0  0  0  0  0  0  0
    4.9204   -0.1105    0.0000 C   0  0  0  0  0  0  0  0  0  0  0  0
    5.7454   -0.1105    0.0000 C   0  0  0  0  0  0  0  0  0  0  0  0
    6.1579   -0.8250    0.0000 C   0  0  0  0  0  0  0  0  0  0  0  0
    5.7454   -1.5395    0.0000 C   0  0  0  0  0  0  0  0  0  0  0  0
    4.9204   -1.5395    0.0000 C   0  0  0  0  0  0  0  0  0  0  0  0
    4.5079   -0.8250    0.0000 C   0  0  0  0  0  0  0  0  0  0  0  0
    3.6829   -0.8250    0.0000 C   0  0  0  0  0  0  0  0  0  0  0  0
    3.2704   -1.5395    0.0000 C   0  0  0  0  0  0  0  0  0  0  0  0
    2.4454   -1.5395    0.0000 C   0  0  0  0  0  0  0  0  0  0  0  0
    2.0329   -0.8250    0.0000 N   0  0  0  0  0  0  0  0  0  0  0  0
    2.4454   -0.1105    0.0000 C   0  0  0  0  0  0  0  0  0  0  0  0
    3.2704   -0.1105    0.0000 C   0  0  0  0  0  0  0  0  0  0  0  0
    0.7954   -0.1105    0.0000 C   0  0  0  0  0  0  0  0  0  0  0  0
   -0.0296   -0.1105    0.0000 C   0  0  0  0  0  0  0  0  0  0  0  0
  1  2  1  0  0  0  0
  2  3  2  0  0  0  0
  2  4  1  0  0  0  0
  4  5  4  0  0  0  0
  5  6  4  0  0  0  0
  6  7  4  0  0  0  0
  7  8  1  0  0  0  0
  7  9  4  0  0  0  0
  9 10  1  0  0  0  0
  9 11  4  0  0  0  0
  4 11  4  0  0  0  0
 11 12  1  0  0  0  0
 12 13  2  0  0  0  0
 13 14  1  0  0  0  0
 14 15  2  0  0  0  0
 14 16  1  0  0  0  0
 17 16  1  1  0  0  0
 17 18  1  0  0  0  0
 18 19  1  0  0  0  0
 19 20  1  0  0  0  0
 20 21  1  0  0  0  0
 21 22  1  1  0  0  0
 21 23  1  0  0  0  0
 23 24  2  0  0  0  0
 23 25  1  0  0  0  0
 25 26  1  0  0  0  0
 26 27  4  0  0  0  0
 27 28  4  0  0  0  0
 28 29  4  0  0  0  0
 29 30  4  0  0  0  0
 30 31  4  0  0  0  0
 26 31  4  0  0  0  0
 31 32  1  0  0  0  0
 32 33  4  0  0  0  0
 33 34  4  0  0  0  0
 34 35  4  0  0  0  0
 35 36  4  0  0  0  0
 17 36  1  0  0  0  0
 36 37  4  0  0  0  0
 32 37  4  0  0  0  0
 16 38  1  0  0  0  0
 38 39  1  0  0  0  0
 12 39  1  0  0  0  0
M  END
>  <CdId>
358915

>  <Mol Weight>
546.032

>  <Formula>
C31H29ClFN3O3

>  <cmpd_chemblid>
CHEMBL4109066

>  <std_type>
Ki

>  <std_value>
4.77

>  <std_unit>
nM

>  <target_id>
CHEMBL2016

>  <target_name>
Coagulation factor IX

>  <organism>
Homo sapiens

>  <target_type>
SINGLE PROTEIN

$$$$

  Mrv0541 08052111042D          

 33 37  0  0  1  0            999 V2000
   -1.4066   -1.6301    0.0000 C   0  0  0  0  0  0  0  0  0  0  0  0
   -0.5996   -1.8016    0.0000 C   0  0  0  0  0  0  0  0  0  0  0  0
   -0.3446   -2.5862    0.0000 C   0  0  0  0  0  0  0  0  0  0  0  0
    0.4623   -2.7578    0.0000 C   0  0  0  0  0  0  0  0  0  0  0  0
    1.0144   -2.1447    0.0000 C   0  0  0  0  0  0  0  0  0  0  0  0
    1.8394   -2.1447    0.0000 C   0  0  0  0  0  0  0  0  0  0  0  0
    2.0943   -1.3601    0.0000 C   0  0  0  0  0  0  0  0  0  0  0  0
    1.4269   -0.8751    0.0000 N   0  0  0  0  0  0  0  0  0  0  0  0
    0.7594   -1.3601    0.0000 N   0  0  0  0  0  0  0  0  0  0  0  0
   -0.0476   -1.1885    0.0000 C   0  0  0  0  0  0  0  0  0  0  0  0
    2.9013   -1.1885    0.0000 C   0  0  0  0  0  0  0  0  0  0  0  0
    3.4533   -1.8016    0.0000 C   0  0  0  0  0  0  0  0  0  0  0  0
    3.1984   -2.5862    0.0000 C   0  0  1  0  0  0  0  0  0  0  0  0
    4.0153   -2.7011    0.0000 C   0  0  0  0  0  0  0  0  0  0  0  0
    4.5233   -2.0510    0.0000 O   0  0  0  0  0  0  0  0  0  0  0  0
    3.2272   -3.4107    0.0000 N   0  0  0  0  0  0  0  0  0  0  0  0
    3.9556   -3.7981    0.0000 C   0  0  0  0  0  0  0  0  0  0  0  0
    4.6552   -3.3609    0.0000 O   0  0  0  0  0  0  0  0  0  0  0  0
    3.9844   -4.6226    0.0000 C   0  0  0  0  0  0  0  0  0  0  0  0
    4.7128   -5.0099    0.0000 C   0  0  0  0  0  0  0  0  0  0  0  0
    5.4124   -4.5727    0.0000 Cl  0  0  0  0  0  0  0  0  0  0  0  0
    4.7416   -5.8344    0.0000 C   0  0  0  0  0  0  0  0  0  0  0  0
    4.0420   -6.2715    0.0000 C   0  0  0  0  0  0  0  0  0  0  0  0
    4.0708   -7.0960    0.0000 N   0  0  0  0  0  0  0  0  0  0  0  0
    4.7547   -7.5574    0.0000 C   0  0  0  0  0  0  0  0  0  0  0  0
    4.5273   -8.3504    0.0000 N   0  0  0  0  0  0  0  0  0  0  0  0
    3.7028   -8.3792    0.0000 C   0  0  0  0  0  0  0  0  0  0  0  0
    3.2415   -9.0632    0.0000 C   0  0  0  0  0  0  0  0  0  0  0  0
    3.4206   -7.6040    0.0000 N   0  0  0  0  0  0  0  0  0  0  0  0
    3.3135   -5.8842    0.0000 C   0  0  0  0  0  0  0  0  0  0  0  0
    3.2847   -5.0597    0.0000 C   0  0  0  0  0  0  0  0  0  0  0  0
    2.5563   -4.6724    0.0000 Cl  0  0  0  0  0  0  0  0  0  0  0  0
    2.3914   -2.7578    0.0000 C   0  0  0  0  0  0  0  0  0  0  0  0
  1  2  1  0  0  0  0
  2  3  4  0  0  0  0
  3  4  4  0  0  0  0
  4  5  4  0  0  0  0
  5  6  4  0  0  0  0
  6  7  4  0  0  0  0
  7  8  4  0  0  0  0
  8  9  4  0  0  0  0
  5  9  4  0  0  0  0
  9 10  4  0  0  0  0
  2 10  4  0  0  0  0
  7 11  1  0  0  0  0
 11 12  1  0  0  0  0
 12 13  1  0  0  0  0
 13 14  1  6  0  0  0
 14 15  1  0  0  0  0
 13 16  1  1  0  0  0
 16 17  1  0  0  0  0
 17 18  2  0  0  0  0
 17 19  1  0  0  0  0
 19 20  4  0  0  0  0
 20 21  1  0  0  0  0
 20 22  4  0  0  0  0
 22 23  4  0  0  0  0
 23 24  1  0  0  0  0
 24 25  4  0  0  0  0
 25 26  4  0  0  0  0
 26 27  4  0  0  0  0
 27 28  1  0  0  0  0
 27 29  4  0  0  0  0
 24 29  4  0  0  0  0
 23 30  4  0  0  0  0
 30 31  4  0  0  0  0
 19 31  4  0  0  0  0
 31 32  1  0  0  0  0
 13 33  1  0  0  0  0
  6 33  1  0  0  0  0
M  END
>  <CdId>
358916

>  <Mol Weight>
485.366

>  <Formula>
C23H22Cl2N6O2

>  <cmpd_chemblid>
CHEMBL3628836

>  <std_type>
Ki

>  <std_value>
13.8

>  <std_unit>
nM

>  <target_id>
CHEMBL2016

>  <target_name>
Coagulation factor IX

>  <organism>
Homo sapiens

>  <target_type>
SINGLE PROTEIN

$$$$

  Mrv0541 08052111042D          

 36 40  0  0  1  0            999 V2000
   -7.0582   -3.0243    0.0000 C   0  0  0  0  0  0  0  0  0  0  0  0
   -6.3907   -2.5394    0.0000 C   0  0  0  0  0  0  0  0  0  0  0  0
   -6.3907   -1.7144    0.0000 N   0  0  0  0  0  0  0  0  0  0  0  0
   -5.6061   -1.4594    0.0000 C   0  0  0  0  0  0  0  0  0  0  0  0
   -5.1212   -2.1269    0.0000 N   0  0  0  0  0  0  0  0  0  0  0  0
   -4.2962   -2.1269    0.0000 C   0  0  0  0  0  0  0  0  0  0  0  0
   -3.8837   -1.4124    0.0000 C   0  0  0  0  0  0  0  0  0  0  0  0
   -3.0587   -1.4124    0.0000 C   0  0  0  0  0  0  0  0  0  0  0  0
   -2.6462   -0.6979    0.0000 Cl  0  0  0  0  0  0  0  0  0  0  0  0
   -2.6462   -2.1269    0.0000 C   0  0  0  0  0  0  0  0  0  0  0  0
   -1.8212   -2.1269    0.0000 C   0  0  0  0  0  0  0  0  0  0  0  0
   -1.4087   -2.8414    0.0000 O   0  0  0  0  0  0  0  0  0  0  0  0
   -1.4087   -1.4124    0.0000 N   0  0  0  0  0  0  0  0  0  0  0  0
   -0.5837   -1.4124    0.0000 C   0  0  0  0  0  0  0  0  0  0  0  0
   -0.1712   -0.6979    0.0000 C   0  0  1  0  0  0  0  0  0  0  0  0
   -0.5837    0.0165    0.0000 C   0  0  0  0  0  0  0  0  0  0  0  0
   -1.4087    0.0165    0.0000 C   0  0  0  0  0  0  0  0  0  0  0  0
   -1.8212    0.7310    0.0000 C   0  0  0  0  0  0  0  0  0  0  0  0
   -1.4087    1.4455    0.0000 C   0  0  0  0  0  0  0  0  0  0  0  0
   -0.5837    1.4455    0.0000 C   0  0  0  0  0  0  0  0  0  0  0  0
   -0.1712    0.7310    0.0000 C   0  0  0  0  0  0  0  0  0  0  0  0
    0.6538   -0.6979    0.0000 C   0  0  0  0  0  0  0  0  0  0  0  0
    1.1387   -0.0305    0.0000 N   0  0  0  0  0  0  0  0  0  0  0  0
    1.9233   -0.2854    0.0000 C   0  0  0  0  0  0  0  0  0  0  0  0
    2.6378    0.1271    0.0000 C   0  0  0  0  0  0  0  0  0  0  0  0
    3.3523   -0.2854    0.0000 C   0  0  0  0  0  0  0  0  0  0  0  0
    4.0668    0.1271    0.0000 C   0  0  0  0  0  0  0  0  0  0  0  0
    3.3523   -1.1104    0.0000 C   0  0  0  0  0  0  0  0  0  0  0  0
    4.0668   -1.5229    0.0000 C   0  0  0  0  0  0  0  0  0  0  0  0
    2.6378   -1.5229    0.0000 C   0  0  0  0  0  0  0  0  0  0  0  0
    1.9233   -1.1104    0.0000 C   0  0  0  0  0  0  0  0  0  0  0  0
    1.1387   -1.3654    0.0000 N   0  0  0  0  0  0  0  0  0  0  0  0
   -3.0587   -2.8414    0.0000 C   0  0  0  0  0  0  0  0  0  0  0  0
   -2.6462   -3.5558    0.0000 Cl  0  0  0  0  0  0  0  0  0  0  0  0
   -3.8837   -2.8414    0.0000 C   0  0  0  0  0  0  0  0  0  0  0  0
   -5.6061   -2.7943    0.0000 N   0  0  0  0  0  0  0  0  0  0  0  0
  1  2  1  0  0  0  0
  2  3  4  0  0  0  0
  3  4  4  0  0  0  0
  4  5  4  0  0  0  0
  5  6  1  0  0  0  0
  6  7  4  0  0  0  0
  7  8  4  0  0  0  0
  8  9  1  0  0  0  0
  8 10  4  0  0  0  0
 10 11  1  0  0  0  0
 11 12  2  0  0  0  0
 11 13  1  0  0  0  0
 13 14  1  0  0  0  0
 14 15  1  0  0  0  0
 15 16  1  0  0  0  0
 16 17  4  0  0  0  0
 17 18  4  0  0  0  0
 18 19  4  0  0  0  0
 19 20  4  0  0  0  0
 20 21  4  0  0  0  0
 16 21  4  0  0  0  0
 15 22  1  1  0  0  0
 22 23  4  0  0  0  0
 23 24  4  0  0  0  0
 24 25  4  0  0  0  0
 25 26  4  0  0  0  0
 26 27  1  0  0  0  0
 26 28  4  0  0  0  0
 28 29  1  0  0  0  0
 28 30  4  0  0  0  0
 30 31  4  0  0  0  0
 24 31  4  0  0  0  0
 31 32  4  0  0  0  0
 22 32  4  0  0  0  0
 10 33  4  0  0  0  0
 33 34  1  0  0  0  0
 33 35  4  0  0  0  0
  6 35  4  0  0  0  0
  5 36  4  0  0  0  0
  2 36  4  0  0  0  0
M  STY  1   1 DAT
M  SAL   1  1  32
M  SDT   1 MRV_IMPLICIT_H                                        
M  SDD   1     0.0000    0.0000    DR    ALL  0       0  
M  SED   1 IMPL_H1
M  END
>  <CdId>
358918

>  <Mol Weight>
519.425

>  <Formula>
C27H24Cl2N6O

>  <cmpd_chemblid>
CHEMBL3627869

>  <std_type>
Ki

>  <std_value>
20.8

>  <std_unit>
nM

>  <target_id>
CHEMBL2016

>  <target_name>
Coagulation factor IX

>  <organism>
Homo sapiens

>  <target_type>
SINGLE PROTEIN

$$$$

  Mrv0541 08052111042D          

 32 35  0  0  0  0            999 V2000
   -4.3729    1.1952    0.0000 N   0  0  0  0  0  0  0  0  0  0  0  0
   -3.5479    1.1952    0.0000 C   0  0  0  0  0  0  0  0  0  0  0  0
   -3.1354    1.9096    0.0000 N   0  0  0  0  0  0  0  0  0  0  0  0
   -3.1354    0.4807    0.0000 C   0  0  0  0  0  0  0  0  0  0  0  0
   -2.3149    0.3945    0.0000 C   0  0  0  0  0  0  0  0  0  0  0  0
   -2.1434   -0.4125    0.0000 C   0  0  0  0  0  0  0  0  0  0  0  0
   -1.4289   -0.8250    0.0000 C   0  0  0  0  0  0  0  0  0  0  0  0
   -0.7145   -0.4125    0.0000 O   0  0  0  0  0  0  0  0  0  0  0  0
    0.0000   -0.8250    0.0000 C   0  0  0  0  0  0  0  0  0  0  0  0
    0.7145   -0.4125    0.0000 C   0  0  0  0  0  0  0  0  0  0  0  0
    1.4289   -0.8250    0.0000 O   0  0  0  0  0  0  0  0  0  0  0  0
    2.1434   -0.4125    0.0000 C   0  0  0  0  0  0  0  0  0  0  0  0
    2.1434    0.4125    0.0000 O   0  0  0  0  0  0  0  0  0  0  0  0
    2.8579   -0.8250    0.0000 N   0  0  0  0  0  0  0  0  0  0  0  0
    3.5724   -0.4125    0.0000 C   0  0  0  0  0  0  0  0  0  0  0  0
    4.2868   -0.8250    0.0000 C   0  0  0  0  0  0  0  0  0  0  0  0
    5.0013   -0.4125    0.0000 C   0  0  0  0  0  0  0  0  0  0  0  0
    5.7158   -0.8250    0.0000 C   0  0  0  0  0  0  0  0  0  0  0  0
    5.7158   -1.6500    0.0000 C   0  0  0  0  0  0  0  0  0  0  0  0
    5.0013   -2.0625    0.0000 C   0  0  0  0  0  0  0  0  0  0  0  0
    4.2868   -1.6500    0.0000 C   0  0  0  0  0  0  0  0  0  0  0  0
   -0.0000   -1.6500    0.0000 C   0  0  0  0  0  0  0  0  0  0  0  0
    0.7145   -2.0625    0.0000 C   0  0  0  0  0  0  0  0  0  0  0  0
    0.7145   -2.8875    0.0000 C   0  0  0  0  0  0  0  0  0  0  0  0
    0.0000   -3.3000    0.0000 C   0  0  0  0  0  0  0  0  0  0  0  0
   -0.7145   -2.8875    0.0000 C   0  0  0  0  0  0  0  0  0  0  0  0
   -0.7145   -2.0625    0.0000 C   0  0  0  0  0  0  0  0  0  0  0  0
   -1.4289   -1.6500    0.0000 C   0  0  0  0  0  0  0  0  0  0  0  0
   -2.1434   -2.0625    0.0000 C   0  0  0  0  0  0  0  0  0  0  0  0
   -2.8579   -1.6500    0.0000 C   0  0  0  0  0  0  0  0  0  0  0  0
   -2.8579   -0.8250    0.0000 C   0  0  0  0  0  0  0  0  0  0  0  0
   -3.4710   -0.2730    0.0000 S   0  0  0  0  0  0  0  0  0  0  0  0
  1  2  2  0  0  0  0
  2  3  1  0  0  0  0
  2  4  1  0  0  0  0
  4  5  4  0  0  0  0
  5  6  4  0  0  0  0
  6  7  4  0  0  0  0
  7  8  1  0  0  0  0
  8  9  1  0  0  0  0
  9 10  1  0  0  0  0
 10 11  1  0  0  0  0
 11 12  1  0  0  0  0
 12 13  2  0  0  0  0
 12 14  1  0  0  0  0
 14 15  1  0  0  0  0
 15 16  1  0  0  0  0
 16 17  4  0  0  0  0
 17 18  4  0  0  0  0
 18 19  4  0  0  0  0
 19 20  4  0  0  0  0
 20 21  4  0  0  0  0
 16 21  4  0  0  0  0
  9 22  1  0  0  0  0
 22 23  4  0  0  0  0
 23 24  4  0  0  0  0
 24 25  4  0  0  0  0
 25 26  4  0  0  0  0
 26 27  4  0  0  0  0
 22 27  4  0  0  0  0
  7 28  4  0  0  0  0
 28 29  4  0  0  0  0
 29 30  4  0  0  0  0
 30 31  4  0  0  0  0
  6 31  4  0  0  0  0
 31 32  4  0  0  0  0
  4 32  4  0  0  0  0
M  END
>  <CdId>
358919

>  <Mol Weight>
445.533

>  <Formula>
C25H23N3O3S

>  <cmpd_chemblid>
CHEMBL605842

>  <std_type>
Ki

>  <std_value>
61.0

>  <std_unit>
nM

>  <target_id>
CHEMBL2016

>  <target_name>
Coagulation factor IX

>  <organism>
Homo sapiens

>  <target_type>
SINGLE PROTEIN

$$$$

  Mrv0541 08052111042D          

 31 35  0  0  1  0            999 V2000
    0.8838   -2.1500    0.0000 N   0  0  0  0  0  0  0  0  0  0  0  0
    1.1387   -1.3654    0.0000 C   0  0  0  0  0  0  0  0  0  0  0  0
    0.6538   -0.6979    0.0000 N   0  0  0  0  0  0  0  0  0  0  0  0
    1.1387   -0.0305    0.0000 O   0  0  0  0  0  0  0  0  0  0  0  0
    1.9233   -0.2854    0.0000 C   0  0  0  0  0  0  0  0  0  0  0  0
    2.6378    0.1271    0.0000 C   0  0  0  0  0  0  0  0  0  0  0  0
    2.6378    0.9521    0.0000 N   0  0  0  0  0  0  0  0  0  0  0  0
    1.9704    1.4370    0.0000 C   0  0  0  0  0  0  0  0  0  0  0  0
    2.2253    2.2216    0.0000 C   0  0  0  0  0  0  0  0  0  0  0  0
    3.0503    2.2216    0.0000 C   0  0  1  0  0  0  0  0  0  0  0  0
    3.5352    2.8890    0.0000 N   0  0  0  0  0  0  0  0  0  0  0  0
    3.1997    3.6427    0.0000 C   0  0  0  0  0  0  0  0  0  0  0  0
    2.3792    3.7290    0.0000 O   0  0  0  0  0  0  0  0  0  0  0  0
    3.6846    4.3102    0.0000 C   0  0  0  0  0  0  0  0  0  0  0  0
    3.3490    5.0638    0.0000 C   0  0  0  0  0  0  0  0  0  0  0  0
    3.8340    5.7313    0.0000 C   0  0  0  0  0  0  0  0  0  0  0  0
    4.6544    5.6450    0.0000 C   0  0  0  0  0  0  0  0  0  0  0  0
    5.1394    6.3125    0.0000 N   0  0  0  0  0  0  0  0  0  0  0  0
    4.8844    7.0971    0.0000 C   0  0  0  0  0  0  0  0  0  0  0  0
    5.5519    7.5820    0.0000 N   0  0  0  0  0  0  0  0  0  0  0  0
    6.2193    7.0971    0.0000 N   0  0  0  0  0  0  0  0  0  0  0  0
    5.9644    6.3125    0.0000 C   0  0  0  0  0  0  0  0  0  0  0  0
    4.9900    4.8914    0.0000 C   0  0  0  0  0  0  0  0  0  0  0  0
    4.5051    4.2239    0.0000 C   0  0  0  0  0  0  0  0  0  0  0  0
    4.8406    3.4702    0.0000 Cl  0  0  0  0  0  0  0  0  0  0  0  0
    3.3053    1.4370    0.0000 C   0  0  0  0  0  0  0  0  0  0  0  0
    3.3523   -0.2854    0.0000 C   0  0  0  0  0  0  0  0  0  0  0  0
    3.3523   -1.1104    0.0000 C   0  0  0  0  0  0  0  0  0  0  0  0
    2.6378   -1.5229    0.0000 C   0  0  0  0  0  0  0  0  0  0  0  0
    2.6378   -2.3479    0.0000 F   0  0  0  0  0  0  0  0  0  0  0  0
    1.9233   -1.1104    0.0000 C   0  0  0  0  0  0  0  0  0  0  0  0
  1  2  1  0  0  0  0
  2  3  4  0  0  0  0
  3  4  4  0  0  0  0
  4  5  4  0  0  0  0
  5  6  4  0  0  0  0
  6  7  1  0  0  0  0
  7  8  1  0  0  0  0
  8  9  1  0  0  0  0
  9 10  1  0  0  0  0
 10 11  1  1  0  0  0
 11 12  1  0  0  0  0
 12 13  2  0  0  0  0
 12 14  1  0  0  0  0
 14 15  4  0  0  0  0
 15 16  4  0  0  0  0
 16 17  4  0  0  0  0
 17 18  1  0  0  0  0
 18 19  4  0  0  0  0
 19 20  4  0  0  0  0
 20 21  4  0  0  0  0
 21 22  4  0  0  0  0
 18 22  4  0  0  0  0
 17 23  4  0  0  0  0
 23 24  4  0  0  0  0
 14 24  4  0  0  0  0
 24 25  1  0  0  0  0
 10 26  1  0  0  0  0
  7 26  1  0  0  0  0
  6 27  4  0  0  0  0
 27 28  4  0  0  0  0
 28 29  4  0  0  0  0
 29 30  1  0  0  0  0
 29 31  4  0  0  0  0
  2 31  4  0  0  0  0
  5 31  4  0  0  0  0
M  END
>  <CdId>
358920

>  <Mol Weight>
441.846

>  <Formula>
C20H17ClFN7O2

>  <cmpd_chemblid>
CHEMBL4098387

>  <std_type>
Ki

>  <std_value>
86.0

>  <std_unit>
nM

>  <target_id>
CHEMBL2016

>  <target_name>
Coagulation factor IX

>  <organism>
Homo sapiens

>  <target_type>
SINGLE PROTEIN

$$$$

  Mrv0541 08052111042D          

 38 43  0  0  1  0            999 V2000
   -0.2771   -3.5921    0.0000 C   0  0  0  0  0  0  0  0  0  0  0  0
    0.0319   -2.8271    0.0000 C   0  0  0  0  0  0  0  0  0  0  0  0
   -0.4760   -2.1770    0.0000 C   0  0  0  0  0  0  0  0  0  0  0  0
   -0.1669   -1.4121    0.0000 C   0  0  0  0  0  0  0  0  0  0  0  0
    0.6500   -1.2973    0.0000 C   0  0  0  0  0  0  0  0  0  0  0  0
    1.1580   -1.9474    0.0000 C   0  0  0  0  0  0  0  0  0  0  0  0
    1.9749   -1.8326    0.0000 C   0  0  1  0  0  0  0  0  0  0  0  0
    1.9461   -2.6571    0.0000 N   0  0  0  0  0  0  0  0  0  0  0  0
    2.6458   -3.0942    0.0000 C   0  0  0  0  0  0  0  0  0  0  0  0
    3.3742   -2.7069    0.0000 O   0  0  0  0  0  0  0  0  0  0  0  0
    2.6170   -3.9187    0.0000 C   0  0  0  0  0  0  0  0  0  0  0  0
    3.3166   -4.3559    0.0000 C   0  0  0  0  0  0  0  0  0  0  0  0
    4.0451   -3.9686    0.0000 Cl  0  0  0  0  0  0  0  0  0  0  0  0
    3.2878   -5.1804    0.0000 C   0  0  0  0  0  0  0  0  0  0  0  0
    2.5594   -5.5677    0.0000 C   0  0  0  0  0  0  0  0  0  0  0  0
    2.5306   -6.3922    0.0000 N   0  0  0  0  0  0  0  0  0  0  0  0
    3.1807   -6.9002    0.0000 C   0  0  0  0  0  0  0  0  0  0  0  0
    2.8985   -7.6754    0.0000 N   0  0  0  0  0  0  0  0  0  0  0  0
    2.0741   -7.6466    0.0000 C   0  0  0  0  0  0  0  0  0  0  0  0
    1.5661   -8.2967    0.0000 C   0  0  0  0  0  0  0  0  0  0  0  0
    1.8466   -6.8536    0.0000 N   0  0  0  0  0  0  0  0  0  0  0  0
    1.8598   -5.1306    0.0000 C   0  0  0  0  0  0  0  0  0  0  0  0
    1.8886   -4.3061    0.0000 C   0  0  0  0  0  0  0  0  0  0  0  0
    1.1889   -3.8689    0.0000 Cl  0  0  0  0  0  0  0  0  0  0  0  0
    1.7200   -1.0479    0.0000 C   0  0  0  0  0  0  0  0  0  0  0  0
    2.2720   -0.4349    0.0000 C   0  0  0  0  0  0  0  0  0  0  0  0
    3.0790   -0.6064    0.0000 C   0  0  0  0  0  0  0  0  0  0  0  0
    3.7464   -0.1215    0.0000 N   0  0  0  0  0  0  0  0  0  0  0  0
    4.4139   -0.6064    0.0000 N   0  0  0  0  0  0  0  0  0  0  0  0
    5.2208   -0.4349    0.0000 C   0  0  0  0  0  0  0  0  0  0  0  0
    5.7729   -1.0479    0.0000 C   0  0  0  0  0  0  0  0  0  0  0  0
    6.5798   -0.8764    0.0000 C   0  0  0  0  0  0  0  0  0  0  0  0
    5.5179   -1.8326    0.0000 C   0  0  0  0  0  0  0  0  0  0  0  0
    4.7110   -2.0041    0.0000 C   0  0  0  0  0  0  0  0  0  0  0  0
    4.1589   -1.3910    0.0000 C   0  0  0  0  0  0  0  0  0  0  0  0
    3.3339   -1.3910    0.0000 C   0  0  0  0  0  0  0  0  0  0  0  0
    2.7819   -2.0041    0.0000 C   0  0  0  0  0  0  0  0  0  0  0  0
    0.8489   -2.7123    0.0000 C   0  0  0  0  0  0  0  0  0  0  0  0
  1  2  1  0  0  0  0
  2  3  4  0  0  0  0
  3  4  4  0  0  0  0
  4  5  4  0  0  0  0
  5  6  4  0  0  0  0
  7  6  1  1  0  0  0
  7  8  1  6  0  0  0
  8  9  1  0  0  0  0
  9 10  2  0  0  0  0
  9 11  1  0  0  0  0
 11 12  4  0  0  0  0
 12 13  1  0  0  0  0
 12 14  4  0  0  0  0
 14 15  4  0  0  0  0
 15 16  1  0  0  0  0
 16 17  4  0  0  0  0
 17 18  4  0  0  0  0
 18 19  4  0  0  0  0
 19 20  1  0  0  0  0
 19 21  4  0  0  0  0
 16 21  4  0  0  0  0
 15 22  4  0  0  0  0
 22 23  4  0  0  0  0
 11 23  4  0  0  0  0
 23 24  1  0  0  0  0
  7 25  1  0  0  0  0
 25 26  1  0  0  0  0
 26 27  1  0  0  0  0
 27 28  4  0  0  0  0
 28 29  4  0  0  0  0
 29 30  4  0  0  0  0
 30 31  4  0  0  0  0
 31 32  1  0  0  0  0
 31 33  4  0  0  0  0
 33 34  4  0  0  0  0
 34 35  4  0  0  0  0
 29 35  4  0  0  0  0
 35 36  4  0  0  0  0
 27 36  4  0  0  0  0
 36 37  1  0  0  0  0
  7 37  1  0  0  0  0
  6 38  4  0  0  0  0
  2 38  4  0  0  0  0
M  END
>  <CdId>
358921

>  <Mol Weight>
545.462

>  <Formula>
C29H26Cl2N6O

>  <cmpd_chemblid>
CHEMBL3628954

>  <std_type>
Ki

>  <std_value>
1.8

>  <std_unit>
nM

>  <target_id>
CHEMBL2016

>  <target_name>
Coagulation factor IX

>  <organism>
Homo sapiens

>  <target_type>
SINGLE PROTEIN

$$$$

  Mrv0541 08052111042D          

 38 42  0  0  1  0            999 V2000
    3.9849    3.9849    0.0000 C   0  0  0  0  0  0  0  0  0  0  0  0
    4.3974    3.2704    0.0000 C   0  0  2  0  0  0  0  0  0  0  0  0
    5.2224    3.2704    0.0000 C   0  0  0  0  0  0  0  0  0  0  0  0
    5.6349    2.5559    0.0000 C   0  0  0  0  0  0  0  0  0  0  0  0
    6.4599    2.5559    0.0000 C   0  0  0  0  0  0  0  0  0  0  0  0
    6.8724    1.8414    0.0000 C   0  0  2  0  0  0  0  0  0  0  0  0
    7.6974    1.8414    0.0000 N   0  0  0  0  0  0  0  0  0  0  0  0
    8.1099    2.5559    0.0000 C   0  0  0  0  0  0  0  0  0  0  0  0
    8.9349    2.5559    0.0000 C   0  0  0  0  0  0  0  0  0  0  0  0
    9.3474    1.8414    0.0000 C   0  0  0  0  0  0  0  0  0  0  0  0
   10.1724    1.8414    0.0000 C   0  0  0  0  0  0  0  0  0  0  0  0
   10.5849    2.5559    0.0000 C   0  0  0  0  0  0  0  0  0  0  0  0
   10.1724    3.2704    0.0000 F   0  0  0  0  0  0  0  0  0  0  0  0
   11.4099    2.5559    0.0000 C   0  0  0  0  0  0  0  0  0  0  0  0
   11.8224    1.8414    0.0000 C   0  0  0  0  0  0  0  0  0  0  0  0
   11.4099    1.1270    0.0000 C   0  0  0  0  0  0  0  0  0  0  0  0
   11.8224    0.4125    0.0000 Cl  0  0  0  0  0  0  0  0  0  0  0  0
   10.5849    1.1270    0.0000 C   0  0  0  0  0  0  0  0  0  0  0  0
   10.1724    0.4125    0.0000 F   0  0  0  0  0  0  0  0  0  0  0  0
    8.9349    1.1270    0.0000 C   0  0  0  0  0  0  0  0  0  0  0  0
    8.1099    1.1270    0.0000 C   0  0  0  0  0  0  0  0  0  0  0  0
    7.6974    0.4125    0.0000 O   0  0  0  0  0  0  0  0  0  0  0  0
    6.4599    1.1270    0.0000 C   0  0  0  0  0  0  0  0  0  0  0  0
    5.6349    1.1270    0.0000 C   0  0  0  0  0  0  0  0  0  0  0  0
    5.2224    0.4125    0.0000 C   0  0  0  0  0  0  0  0  0  0  0  0
    5.6349   -0.3020    0.0000 C   0  0  0  0  0  0  0  0  0  0  0  0
    6.4599   -0.3020    0.0000 C   0  0  0  0  0  0  0  0  0  0  0  0
    6.8724    0.4125    0.0000 N   0  0  0  0  0  0  0  0  0  0  0  0
    4.3974    0.4125    0.0000 C   0  0  0  0  0  0  0  0  0  0  0  0
    3.9849   -0.3020    0.0000 C   0  0  0  0  0  0  0  0  0  0  0  0
    3.1599   -0.3020    0.0000 C   0  0  0  0  0  0  0  0  0  0  0  0
    2.7474    0.4125    0.0000 C   0  0  0  0  0  0  0  0  0  0  0  0
    1.9224    0.4125    0.0000 F   0  0  0  0  0  0  0  0  0  0  0  0
    3.1599    1.1270    0.0000 C   0  0  0  0  0  0  0  0  0  0  0  0
    3.9849    1.1270    0.0000 C   0  0  0  0  0  0  0  0  0  0  0  0
    4.3974    1.8414    0.0000 N   0  0  0  0  0  0  0  0  0  0  0  0
    3.9849    2.5559    0.0000 C   0  0  0  0  0  0  0  0  0  0  0  0
    3.1599    2.5559    0.0000 O   0  0  0  0  0  0  0  0  0  0  0  0
  2  1  1  6  0  0  0
  2  3  1  0  0  0  0
  3  4  1  0  0  0  0
  4  5  1  0  0  0  0
  5  6  1  0  0  0  0
  6  7  1  6  0  0  0
  7  8  1  0  0  0  0
  8  9  1  0  0  0  0
  9 10  1  0  0  0  0
 10 11  1  0  0  0  0
 11 12  4  0  0  0  0
 12 13  1  0  0  0  0
 12 14  4  0  0  0  0
 14 15  4  0  0  0  0
 15 16  4  0  0  0  0
 16 17  1  0  0  0  0
 16 18  4  0  0  0  0
 11 18  4  0  0  0  0
 18 19  1  0  0  0  0
 10 20  2  0  0  0  0
 20 21  1  0  0  0  0
  7 21  1  0  0  0  0
 21 22  2  0  0  0  0
  6 23  1  0  0  0  0
 23 24  4  0  0  0  0
 24 25  4  0  0  0  0
 25 26  4  0  0  0  0
 26 27  4  0  0  0  0
 27 28  4  0  0  0  0
 23 28  4  0  0  0  0
 25 29  1  0  0  0  0
 29 30  4  0  0  0  0
 30 31  4  0  0  0  0
 31 32  4  0  0  0  0
 32 33  1  0  0  0  0
 32 34  4  0  0  0  0
 34 35  4  0  0  0  0
 29 35  4  0  0  0  0
 35 36  1  0  0  0  0
 36 37  1  0  0  0  0
  2 37  1  0  0  0  0
 37 38  2  0  0  0  0
M  END
>  <CdId>
358922

>  <Mol Weight>
539.976

>  <Formula>
C29H25ClF3N3O2

>  <cmpd_chemblid>
CHEMBL4110550

>  <std_type>
Ki

>  <std_value>
34.82

>  <std_unit>
nM

>  <target_id>
CHEMBL2016

>  <target_name>
Coagulation factor IX

>  <organism>
Homo sapiens

>  <target_type>
SINGLE PROTEIN

$$$$

  Mrv0541 08052111042D          

 41 45  0  0  1  0            999 V2000
    3.9849    3.9849    0.0000 C   0  0  0  0  0  0  0  0  0  0  0  0
    4.3974    3.2704    0.0000 C   0  0  2  0  0  0  0  0  0  0  0  0
    5.2224    3.2704    0.0000 C   0  0  0  0  0  0  0  0  0  0  0  0
    5.6349    2.5559    0.0000 C   0  0  0  0  0  0  0  0  0  0  0  0
    6.4599    2.5559    0.0000 C   0  0  0  0  0  0  0  0  0  0  0  0
    6.8724    1.8414    0.0000 C   0  0  2  0  0  0  0  0  0  0  0  0
    7.6974    1.8414    0.0000 N   0  0  0  0  0  0  0  0  0  0  0  0
    8.1099    2.5559    0.0000 C   0  0  0  0  0  0  0  0  0  0  0  0
    8.9349    2.5559    0.0000 C   0  0  0  0  0  0  0  0  0  0  0  0
    9.3474    1.8414    0.0000 C   0  0  0  0  0  0  0  0  0  0  0  0
   10.1724    1.8414    0.0000 C   0  0  0  0  0  0  0  0  0  0  0  0
   10.5849    2.5559    0.0000 C   0  0  0  0  0  0  0  0  0  0  0  0
   10.1724    3.2704    0.0000 C   0  0  0  0  0  0  0  0  0  0  0  0
    9.7599    3.9849    0.0000 N   0  0  0  0  0  0  0  0  0  0  0  0
   11.4099    2.5559    0.0000 C   0  0  0  0  0  0  0  0  0  0  0  0
   11.8224    1.8414    0.0000 C   0  0  0  0  0  0  0  0  0  0  0  0
   11.4099    1.1270    0.0000 C   0  0  0  0  0  0  0  0  0  0  0  0
   11.8224    0.4125    0.0000 C   0  0  0  0  0  0  0  0  0  0  0  0
   12.2349   -0.3020    0.0000 N   0  0  0  0  0  0  0  0  0  0  0  0
   10.5849    1.1270    0.0000 C   0  0  0  0  0  0  0  0  0  0  0  0
   10.1724    0.4125    0.0000 F   0  0  0  0  0  0  0  0  0  0  0  0
    8.9349    1.1270    0.0000 C   0  0  0  0  0  0  0  0  0  0  0  0
    8.1099    1.1270    0.0000 C   0  0  0  0  0  0  0  0  0  0  0  0
    7.6974    0.4125    0.0000 O   0  0  0  0  0  0  0  0  0  0  0  0
    6.4599    1.1270    0.0000 C   0  0  0  0  0  0  0  0  0  0  0  0
    5.6349    1.1270    0.0000 C   0  0  0  0  0  0  0  0  0  0  0  0
    5.2224    0.4125    0.0000 C   0  0  0  0  0  0  0  0  0  0  0  0
    5.6349   -0.3020    0.0000 C   0  0  0  0  0  0  0  0  0  0  0  0
    6.4599   -0.3020    0.0000 C   0  0  0  0  0  0  0  0  0  0  0  0
    6.8724    0.4125    0.0000 N   0  0  0  0  0  0  0  0  0  0  0  0
    4.3974    0.4125    0.0000 C   0  0  0  0  0  0  0  0  0  0  0  0
    3.9849    1.1270    0.0000 C   0  0  0  0  0  0  0  0  0  0  0  0
    3.1599    1.1270    0.0000 C   0  0  0  0  0  0  0  0  0  0  0  0
    2.7474    0.4125    0.0000 C   0  0  0  0  0  0  0  0  0  0  0  0
    3.1599   -0.3020    0.0000 C   0  0  0  0  0  0  0  0  0  0  0  0
    2.7474   -1.0164    0.0000 F   0  0  0  0  0  0  0  0  0  0  0  0
    3.9849   -0.3020    0.0000 C   0  0  0  0  0  0  0  0  0  0  0  0
    4.3974   -1.0164    0.0000 F   0  0  0  0  0  0  0  0  0  0  0  0
    4.3974    1.8414    0.0000 N   0  0  0  0  0  0  0  0  0  0  0  0
    3.9849    2.5559    0.0000 C   0  0  0  0  0  0  0  0  0  0  0  0
    3.1599    2.5559    0.0000 O   0  0  0  0  0  0  0  0  0  0  0  0
  2  1  1  6  0  0  0
  2  3  1  0  0  0  0
  3  4  1  0  0  0  0
  4  5  1  0  0  0  0
  5  6  1  0  0  0  0
  6  7  1  6  0  0  0
  7  8  1  0  0  0  0
  8  9  1  0  0  0  0
  9 10  1  0  0  0  0
 10 11  1  0  0  0  0
 11 12  4  0  0  0  0
 12 13  1  0  0  0  0
 13 14  3  0  0  0  0
 12 15  4  0  0  0  0
 15 16  4  0  0  0  0
 16 17  4  0  0  0  0
 17 18  1  0  0  0  0
 18 19  3  0  0  0  0
 17 20  4  0  0  0  0
 11 20  4  0  0  0  0
 20 21  1  0  0  0  0
 10 22  2  0  0  0  0
 22 23  1  0  0  0  0
  7 23  1  0  0  0  0
 23 24  2  0  0  0  0
  6 25  1  0  0  0  0
 25 26  4  0  0  0  0
 26 27  4  0  0  0  0
 27 28  4  0  0  0  0
 28 29  4  0  0  0  0
 29 30  4  0  0  0  0
 25 30  4  0  0  0  0
 27 31  1  0  0  0  0
 31 32  4  0  0  0  0
 32 33  4  0  0  0  0
 33 34  4  0  0  0  0
 34 35  4  0  0  0  0
 35 36  1  0  0  0  0
 35 37  4  0  0  0  0
 31 37  4  0  0  0  0
 37 38  1  0  0  0  0
 32 39  1  0  0  0  0
 39 40  1  0  0  0  0
  2 40  1  0  0  0  0
 40 41  2  0  0  0  0
M  END
>  <CdId>
358923

>  <Mol Weight>
555.5498

>  <Formula>
C31H24F3N5O2

>  <cmpd_chemblid>
CHEMBL4106802

>  <std_type>
Ki

>  <std_value>
120.3

>  <std_unit>
nM

>  <target_id>
CHEMBL2016

>  <target_name>
Coagulation factor IX

>  <organism>
Homo sapiens

>  <target_type>
SINGLE PROTEIN

$$$$

  Mrv0541 08052111042D          

 46 51  0  0  1  0            999 V2000
    9.9810   -3.9243    0.0000 C   0  0  0  0  0  0  0  0  0  0  0  0
    9.2273   -3.5887    0.0000 O   0  0  0  0  0  0  0  0  0  0  0  0
    9.1411   -2.7682    0.0000 C   0  0  0  0  0  0  0  0  0  0  0  0
    8.3874   -2.4327    0.0000 C   0  0  0  0  0  0  0  0  0  0  0  0
    7.6729   -2.8452    0.0000 N   0  0  0  0  0  0  0  0  0  0  0  0
    7.0598   -2.2931    0.0000 N   0  0  0  0  0  0  0  0  0  0  0  0
    7.3954   -1.5395    0.0000 C   0  0  0  0  0  0  0  0  0  0  0  0
    6.9829   -0.8250    0.0000 N   0  0  0  0  0  0  0  0  0  0  0  0
    6.1579   -0.8250    0.0000 C   0  0  0  0  0  0  0  0  0  0  0  0
    5.7454   -0.1105    0.0000 C   0  0  0  0  0  0  0  0  0  0  0  0
    4.9204   -0.1105    0.0000 C   0  0  0  0  0  0  0  0  0  0  0  0
    4.5079   -0.8250    0.0000 C   0  0  0  0  0  0  0  0  0  0  0  0
    4.9204   -1.5395    0.0000 C   0  0  0  0  0  0  0  0  0  0  0  0
    5.7454   -1.5395    0.0000 C   0  0  0  0  0  0  0  0  0  0  0  0
    4.5079   -2.2539    0.0000 N   0  0  0  0  0  0  0  0  0  0  0  0
    4.9204   -2.9684    0.0000 C   0  0  0  0  0  0  0  0  0  0  0  0
    5.7454   -2.9684    0.0000 O   0  0  0  0  0  0  0  0  0  0  0  0
    4.5079   -3.6829    0.0000 C   0  0  2  0  0  0  0  0  0  0  0  0
    4.9204   -4.3974    0.0000 C   0  0  0  0  0  0  0  0  0  0  0  0
    3.6829   -3.6829    0.0000 C   0  0  0  0  0  0  0  0  0  0  0  0
    3.2704   -2.9684    0.0000 C   0  0  0  0  0  0  0  0  0  0  0  0
    2.4454   -2.9684    0.0000 C   0  0  0  0  0  0  0  0  0  0  0  0
    2.0329   -2.2539    0.0000 C   0  0  2  0  0  0  0  0  0  0  0  0
    1.2079   -2.2539    0.0000 N   0  0  0  0  0  0  0  0  0  0  0  0
    0.7954   -2.9684    0.0000 C   0  0  0  0  0  0  0  0  0  0  0  0
   -0.0296   -2.9684    0.0000 C   0  0  0  0  0  0  0  0  0  0  0  0
   -0.4421   -2.2539    0.0000 C   0  0  0  0  0  0  0  0  0  0  0  0
   -1.2671   -2.2539    0.0000 C   0  0  0  0  0  0  0  0  0  0  0  0
   -1.6796   -2.9684    0.0000 C   0  0  0  0  0  0  0  0  0  0  0  0
   -1.2671   -3.6829    0.0000 F   0  0  0  0  0  0  0  0  0  0  0  0
   -2.5046   -2.9684    0.0000 C   0  0  0  0  0  0  0  0  0  0  0  0
   -2.9171   -2.2539    0.0000 C   0  0  0  0  0  0  0  0  0  0  0  0
   -2.5046   -1.5395    0.0000 C   0  0  0  0  0  0  0  0  0  0  0  0
   -2.9171   -0.8250    0.0000 Cl  0  0  0  0  0  0  0  0  0  0  0  0
   -1.6796   -1.5395    0.0000 C   0  0  0  0  0  0  0  0  0  0  0  0
   -1.2671   -0.8250    0.0000 F   0  0  0  0  0  0  0  0  0  0  0  0
   -0.0296   -1.5395    0.0000 C   0  0  0  0  0  0  0  0  0  0  0  0
    0.7954   -1.5395    0.0000 C   0  0  0  0  0  0  0  0  0  0  0  0
    1.2079   -0.8250    0.0000 O   0  0  0  0  0  0  0  0  0  0  0  0
    2.4454   -1.5395    0.0000 C   0  0  0  0  0  0  0  0  0  0  0  0
    3.2704   -1.5395    0.0000 C   0  0  0  0  0  0  0  0  0  0  0  0
    3.6829   -0.8250    0.0000 C   0  0  0  0  0  0  0  0  0  0  0  0
    3.2704   -0.1105    0.0000 C   0  0  0  0  0  0  0  0  0  0  0  0
    2.4454   -0.1105    0.0000 C   0  0  0  0  0  0  0  0  0  0  0  0
    2.0329   -0.8250    0.0000 N   0  0  0  0  0  0  0  0  0  0  0  0
    8.2159   -1.6257    0.0000 O   0  0  0  0  0  0  0  0  0  0  0  0
  1  2  1  0  0  0  0
  2  3  1  0  0  0  0
  3  4  1  0  0  0  0
  4  5  4  0  0  0  0
  5  6  4  0  0  0  0
  6  7  4  0  0  0  0
  7  8  1  0  0  0  0
  8  9  1  0  0  0  0
  9 10  4  0  0  0  0
 10 11  4  0  0  0  0
 11 12  4  0  0  0  0
 12 13  4  0  0  0  0
 13 14  4  0  0  0  0
  9 14  4  0  0  0  0
 13 15  1  0  0  0  0
 15 16  1  0  0  0  0
 16 17  2  0  0  0  0
 16 18  1  0  0  0  0
 18 19  1  6  0  0  0
 18 20  1  0  0  0  0
 20 21  1  0  0  0  0
 21 22  1  0  0  0  0
 22 23  1  0  0  0  0
 23 24  1  6  0  0  0
 24 25  1  0  0  0  0
 25 26  1  0  0  0  0
 26 27  1  0  0  0  0
 27 28  1  0  0  0  0
 28 29  4  0  0  0  0
 29 30  1  0  0  0  0
 29 31  4  0  0  0  0
 31 32  4  0  0  0  0
 32 33  4  0  0  0  0
 33 34  1  0  0  0  0
 33 35  4  0  0  0  0
 28 35  4  0  0  0  0
 35 36  1  0  0  0  0
 27 37  2  0  0  0  0
 37 38  1  0  0  0  0
 24 38  1  0  0  0  0
 38 39  2  0  0  0  0
 23 40  1  0  0  0  0
 40 41  4  0  0  0  0
 41 42  4  0  0  0  0
 12 42  1  0  0  0  0
 42 43  4  0  0  0  0
 43 44  4  0  0  0  0
 44 45  4  0  0  0  0
 40 45  4  0  0  0  0
  7 46  4  0  0  0  0
  4 46  4  0  0  0  0
M  END
>  <CdId>
358924

>  <Mol Weight>
649.087

>  <Formula>
C33H31ClF2N6O4

>  <cmpd_chemblid>
CHEMBL4115130

>  <std_type>
Ki

>  <std_value>
0.69

>  <std_unit>
nM

>  <target_id>
CHEMBL2016

>  <target_name>
Coagulation factor IX

>  <organism>
Homo sapiens

>  <target_type>
SINGLE PROTEIN

$$$$

  Mrv0541 08052111042D          

 37 41  0  0  1  0            999 V2000
    1.4289   -2.4750    0.0000 N   0  0  0  0  0  0  0  0  0  0  0  0
    1.4289   -1.6500    0.0000 C   0  0  0  0  0  0  0  0  0  0  0  0
    0.7145   -1.2375    0.0000 N   0  0  0  0  0  0  0  0  0  0  0  0
    0.7145   -0.4125    0.0000 C   0  0  0  0  0  0  0  0  0  0  0  0
    1.4289    0.0000    0.0000 C   0  0  0  0  0  0  0  0  0  0  0  0
    2.1434   -0.4125    0.0000 C   0  0  0  0  0  0  0  0  0  0  0  0
    2.8579    0.0000    0.0000 C   0  0  0  0  0  0  0  0  0  0  0  0
    3.5724   -0.4125    0.0000 C   0  0  0  0  0  0  0  0  0  0  0  0
    4.2868   -0.0000    0.0000 C   0  0  0  0  0  0  0  0  0  0  0  0
    4.2868    0.8250    0.0000 C   0  0  2  0  0  0  0  0  0  0  0  0
    3.5724    1.2375    0.0000 C   0  0  0  0  0  0  0  0  0  0  0  0
    2.8579    0.8250    0.0000 O   0  0  0  0  0  0  0  0  0  0  0  0
    3.5724    2.0625    0.0000 O   0  0  0  0  0  0  0  0  0  0  0  0
    5.0013    1.2375    0.0000 N   0  0  0  0  0  0  0  0  0  0  0  0
    5.0875    2.0580    0.0000 C   0  0  0  0  0  0  0  0  0  0  0  0
    5.8945    2.2295    0.0000 C   0  0  0  0  0  0  0  0  0  0  0  0
    6.3070    1.5150    0.0000 C   0  0  2  0  0  0  0  0  0  0  0  0
    7.1275    1.4288    0.0000 N   0  0  0  0  0  0  0  0  0  0  0  0
    7.6124    2.0962    0.0000 S   0  0  0  0  0  0  0  0  0  0  0  0
    8.2798    1.6113    0.0000 O   0  0  0  0  0  0  0  0  0  0  0  0
    6.9450    2.5812    0.0000 O   0  0  0  0  0  0  0  0  0  0  0  0
    8.0973    2.7637    0.0000 C   0  0  0  0  0  0  0  0  0  0  0  0
    7.8424    3.5483    0.0000 C   0  0  0  0  0  0  0  0  0  0  0  0
    8.5098    4.0332    0.0000 N   0  0  0  0  0  0  0  0  0  0  0  0
    9.1773    3.5483    0.0000 C   0  0  0  0  0  0  0  0  0  0  0  0
    9.9619    3.8032    0.0000 N   0  0  0  0  0  0  0  0  0  0  0  0
   10.2168    4.5879    0.0000 C   0  0  0  0  0  0  0  0  0  0  0  0
   11.0418    4.5879    0.0000 C   0  0  0  0  0  0  0  0  0  0  0  0
   11.2968    3.8032    0.0000 C   0  0  0  0  0  0  0  0  0  0  0  0
   10.6293    3.3183    0.0000 C   0  0  0  0  0  0  0  0  0  0  0  0
    8.9223    2.7637    0.0000 S   0  0  0  0  0  0  0  0  0  0  0  0
    5.7550    0.9019    0.0000 C   0  0  0  0  0  0  0  0  0  0  0  0
    5.9265    0.0950    0.0000 O   0  0  0  0  0  0  0  0  0  0  0  0
    3.5724   -1.2375    0.0000 C   0  0  0  0  0  0  0  0  0  0  0  0
    4.2868   -1.6500    0.0000 Cl  0  0  0  0  0  0  0  0  0  0  0  0
    2.8579   -1.6500    0.0000 C   0  0  0  0  0  0  0  0  0  0  0  0
    2.1434   -1.2375    0.0000 C   0  0  0  0  0  0  0  0  0  0  0  0
  1  2  1  0  0  0  0
  2  3  4  0  0  0  0
  3  4  4  0  0  0  0
  4  5  4  0  0  0  0
  5  6  4  0  0  0  0
  6  7  4  0  0  0  0
  7  8  4  0  0  0  0
  8  9  1  0  0  0  0
  9 10  1  0  0  0  0
 10 11  1  0  0  0  0
 11 12  2  0  0  0  0
 11 13  1  0  0  0  0
 10 14  1  6  0  0  0
 14 15  1  0  0  0  0
 15 16  1  0  0  0  0
 16 17  1  0  0  0  0
 17 18  1  6  0  0  0
 18 19  1  0  0  0  0
 19 20  2  0  0  0  0
 19 21  2  0  0  0  0
 19 22  1  0  0  0  0
 22 23  4  0  0  0  0
 23 24  4  0  0  0  0
 24 25  4  0  0  0  0
 25 26  1  0  0  0  0
 26 27  1  0  0  0  0
 27 28  1  0  0  0  0
 28 29  1  0  0  0  0
 29 30  1  0  0  0  0
 26 30  1  0  0  0  0
 25 31  4  0  0  0  0
 22 31  4  0  0  0  0
 17 32  1  0  0  0  0
 14 32  1  0  0  0  0
 32 33  2  0  0  0  0
  8 34  4  0  0  0  0
 34 35  1  0  0  0  0
 34 36  4  0  0  0  0
 36 37  4  0  0  0  0
  2 37  4  0  0  0  0
  6 37  4  0  0  0  0
M  END
>  <CdId>
358926

>  <Mol Weight>
565.065

>  <Formula>
C23H25ClN6O5S2

>  <cmpd_chemblid>
CHEMBL3930120

>  <std_type>
Ki

>  <std_value>
42.0

>  <std_unit>
nM

>  <target_id>
CHEMBL2016

>  <target_name>
Coagulation factor IX

>  <organism>
Homo sapiens

>  <target_type>
SINGLE PROTEIN

$$$$

  Mrv0541 08052111042D          

 38 42  0  0  1  0            999 V2000
    3.9849    3.9849    0.0000 C   0  0  0  0  0  0  0  0  0  0  0  0
    4.3974    3.2704    0.0000 C   0  0  2  0  0  0  0  0  0  0  0  0
    5.2224    3.2704    0.0000 C   0  0  0  0  0  0  0  0  0  0  0  0
    5.6349    2.5559    0.0000 C   0  0  0  0  0  0  0  0  0  0  0  0
    6.4599    2.5559    0.0000 C   0  0  0  0  0  0  0  0  0  0  0  0
    6.8724    1.8414    0.0000 C   0  0  2  0  0  0  0  0  0  0  0  0
    7.6974    1.8414    0.0000 N   0  0  0  0  0  0  0  0  0  0  0  0
    8.1099    2.5559    0.0000 C   0  0  0  0  0  0  0  0  0  0  0  0
    8.9349    2.5559    0.0000 C   0  0  0  0  0  0  0  0  0  0  0  0
    9.3474    1.8414    0.0000 C   0  0  0  0  0  0  0  0  0  0  0  0
   10.1724    1.8414    0.0000 C   0  0  0  0  0  0  0  0  0  0  0  0
   10.5849    2.5559    0.0000 C   0  0  0  0  0  0  0  0  0  0  0  0
   10.1724    3.2704    0.0000 F   0  0  0  0  0  0  0  0  0  0  0  0
   11.4099    2.5559    0.0000 C   0  0  0  0  0  0  0  0  0  0  0  0
   11.8224    1.8414    0.0000 C   0  0  0  0  0  0  0  0  0  0  0  0
   11.4099    1.1270    0.0000 C   0  0  0  0  0  0  0  0  0  0  0  0
   11.8224    0.4125    0.0000 Cl  0  0  0  0  0  0  0  0  0  0  0  0
   10.5849    1.1270    0.0000 C   0  0  0  0  0  0  0  0  0  0  0  0
   10.1724    0.4125    0.0000 F   0  0  0  0  0  0  0  0  0  0  0  0
    8.9349    1.1270    0.0000 C   0  0  0  0  0  0  0  0  0  0  0  0
    8.1099    1.1270    0.0000 C   0  0  0  0  0  0  0  0  0  0  0  0
    7.6974    0.4125    0.0000 O   0  0  0  0  0  0  0  0  0  0  0  0
    6.4599    1.1270    0.0000 C   0  0  0  0  0  0  0  0  0  0  0  0
    5.6349    1.1270    0.0000 C   0  0  0  0  0  0  0  0  0  0  0  0
    5.2224    0.4125    0.0000 C   0  0  0  0  0  0  0  0  0  0  0  0
    5.6349   -0.3020    0.0000 C   0  0  0  0  0  0  0  0  0  0  0  0
    6.4599   -0.3020    0.0000 C   0  0  0  0  0  0  0  0  0  0  0  0
    6.8724    0.4125    0.0000 N   0  0  0  0  0  0  0  0  0  0  0  0
    4.3974    0.4125    0.0000 C   0  0  0  0  0  0  0  0  0  0  0  0
    3.9849   -0.3020    0.0000 C   0  0  0  0  0  0  0  0  0  0  0  0
    4.3974   -1.0164    0.0000 F   0  0  0  0  0  0  0  0  0  0  0  0
    3.1599   -0.3020    0.0000 C   0  0  0  0  0  0  0  0  0  0  0  0
    2.7474    0.4125    0.0000 C   0  0  0  0  0  0  0  0  0  0  0  0
    3.1599    1.1270    0.0000 C   0  0  0  0  0  0  0  0  0  0  0  0
    3.9849    1.1270    0.0000 C   0  0  0  0  0  0  0  0  0  0  0  0
    4.3974    1.8414    0.0000 N   0  0  0  0  0  0  0  0  0  0  0  0
    3.9849    2.5559    0.0000 C   0  0  0  0  0  0  0  0  0  0  0  0
    3.1599    2.5559    0.0000 O   0  0  0  0  0  0  0  0  0  0  0  0
  2  1  1  6  0  0  0
  2  3  1  0  0  0  0
  3  4  1  0  0  0  0
  4  5  1  0  0  0  0
  5  6  1  0  0  0  0
  6  7  1  6  0  0  0
  7  8  4  0  0  0  0
  8  9  4  0  0  0  0
  9 10  4  0  0  0  0
 10 11  1  0  0  0  0
 11 12  4  0  0  0  0
 12 13  1  0  0  0  0
 12 14  4  0  0  0  0
 14 15  4  0  0  0  0
 15 16  4  0  0  0  0
 16 17  1  0  0  0  0
 16 18  4  0  0  0  0
 11 18  4  0  0  0  0
 18 19  1  0  0  0  0
 10 20  4  0  0  0  0
 20 21  4  0  0  0  0
  7 21  4  0  0  0  0
 21 22  2  0  0  0  0
  6 23  1  0  0  0  0
 23 24  4  0  0  0  0
 24 25  4  0  0  0  0
 25 26  4  0  0  0  0
 26 27  4  0  0  0  0
 27 28  4  0  0  0  0
 23 28  4  0  0  0  0
 25 29  1  0  0  0  0
 29 30  4  0  0  0  0
 30 31  1  0  0  0  0
 30 32  4  0  0  0  0
 32 33  4  0  0  0  0
 33 34  4  0  0  0  0
 34 35  4  0  0  0  0
 29 35  4  0  0  0  0
 35 36  1  0  0  0  0
 36 37  1  0  0  0  0
  2 37  1  0  0  0  0
 37 38  2  0  0  0  0
M  END
>  <CdId>
358927

>  <Mol Weight>
537.96

>  <Formula>
C29H23ClF3N3O2

>  <cmpd_chemblid>
CHEMBL4109395

>  <std_type>
Ki

>  <std_value>
18.06

>  <std_unit>
nM

>  <target_id>
CHEMBL2016

>  <target_name>
Coagulation factor IX

>  <organism>
Homo sapiens

>  <target_type>
SINGLE PROTEIN

$$$$

  Mrv0541 08052111042D          

 38 42  0  0  1  0            999 V2000
    3.9849    3.9849    0.0000 C   0  0  0  0  0  0  0  0  0  0  0  0
    4.3974    3.2704    0.0000 C   0  0  2  0  0  0  0  0  0  0  0  0
    5.2224    3.2704    0.0000 C   0  0  0  0  0  0  0  0  0  0  0  0
    5.6349    2.5559    0.0000 C   0  0  0  0  0  0  0  0  0  0  0  0
    6.4599    2.5559    0.0000 C   0  0  0  0  0  0  0  0  0  0  0  0
    6.8724    1.8414    0.0000 C   0  0  2  0  0  0  0  0  0  0  0  0
    7.6974    1.8414    0.0000 N   0  0  0  0  0  0  0  0  0  0  0  0
    8.1099    2.5559    0.0000 C   0  0  0  0  0  0  0  0  0  0  0  0
    8.9349    2.5559    0.0000 C   0  0  0  0  0  0  0  0  0  0  0  0
    9.3474    1.8414    0.0000 C   0  0  0  0  0  0  0  0  0  0  0  0
   10.1724    1.8414    0.0000 C   0  0  0  0  0  0  0  0  0  0  0  0
   10.5849    2.5559    0.0000 C   0  0  0  0  0  0  0  0  0  0  0  0
   10.1724    3.2704    0.0000 F   0  0  0  0  0  0  0  0  0  0  0  0
   11.4099    2.5559    0.0000 C   0  0  0  0  0  0  0  0  0  0  0  0
   11.8224    1.8414    0.0000 C   0  0  0  0  0  0  0  0  0  0  0  0
   11.4099    1.1270    0.0000 C   0  0  0  0  0  0  0  0  0  0  0  0
   11.8224    0.4125    0.0000 Cl  0  0  0  0  0  0  0  0  0  0  0  0
   10.5849    1.1270    0.0000 C   0  0  0  0  0  0  0  0  0  0  0  0
   10.1724    0.4125    0.0000 F   0  0  0  0  0  0  0  0  0  0  0  0
    8.9349    1.1270    0.0000 C   0  0  0  0  0  0  0  0  0  0  0  0
    8.1099    1.1270    0.0000 C   0  0  0  0  0  0  0  0  0  0  0  0
    7.6974    0.4125    0.0000 O   0  0  0  0  0  0  0  0  0  0  0  0
    6.4599    1.1270    0.0000 C   0  0  0  0  0  0  0  0  0  0  0  0
    5.6349    1.1270    0.0000 C   0  0  0  0  0  0  0  0  0  0  0  0
    5.2224    0.4125    0.0000 C   0  0  0  0  0  0  0  0  0  0  0  0
    5.6349   -0.3020    0.0000 C   0  0  0  0  0  0  0  0  0  0  0  0
    6.4599   -0.3020    0.0000 C   0  0  0  0  0  0  0  0  0  0  0  0
    6.8724    0.4125    0.0000 N   0  0  0  0  0  0  0  0  0  0  0  0
    4.3974    0.4125    0.0000 C   0  0  0  0  0  0  0  0  0  0  0  0
    3.9849   -0.3020    0.0000 C   0  0  0  0  0  0  0  0  0  0  0  0
    3.1599   -0.3020    0.0000 C   0  0  0  0  0  0  0  0  0  0  0  0
    2.7474   -1.0164    0.0000 F   0  0  0  0  0  0  0  0  0  0  0  0
    2.7474    0.4125    0.0000 C   0  0  0  0  0  0  0  0  0  0  0  0
    3.1599    1.1270    0.0000 C   0  0  0  0  0  0  0  0  0  0  0  0
    3.9849    1.1270    0.0000 C   0  0  0  0  0  0  0  0  0  0  0  0
    4.3974    1.8414    0.0000 N   0  0  0  0  0  0  0  0  0  0  0  0
    3.9849    2.5559    0.0000 C   0  0  0  0  0  0  0  0  0  0  0  0
    3.1599    2.5559    0.0000 O   0  0  0  0  0  0  0  0  0  0  0  0
  2  1  1  6  0  0  0
  2  3  1  0  0  0  0
  3  4  1  0  0  0  0
  4  5  1  0  0  0  0
  5  6  1  0  0  0  0
  6  7  1  6  0  0  0
  7  8  1  0  0  0  0
  8  9  1  0  0  0  0
  9 10  1  0  0  0  0
 10 11  1  0  0  0  0
 11 12  4  0  0  0  0
 12 13  1  0  0  0  0
 12 14  4  0  0  0  0
 14 15  4  0  0  0  0
 15 16  4  0  0  0  0
 16 17  1  0  0  0  0
 16 18  4  0  0  0  0
 11 18  4  0  0  0  0
 18 19  1  0  0  0  0
 10 20  2  0  0  0  0
 20 21  1  0  0  0  0
  7 21  1  0  0  0  0
 21 22  2  0  0  0  0
  6 23  1  0  0  0  0
 23 24  4  0  0  0  0
 24 25  4  0  0  0  0
 25 26  4  0  0  0  0
 26 27  4  0  0  0  0
 27 28  4  0  0  0  0
 23 28  4  0  0  0  0
 25 29  1  0  0  0  0
 29 30  4  0  0  0  0
 30 31  4  0  0  0  0
 31 32  1  0  0  0  0
 31 33  4  0  0  0  0
 33 34  4  0  0  0  0
 34 35  4  0  0  0  0
 29 35  4  0  0  0  0
 35 36  1  0  0  0  0
 36 37  1  0  0  0  0
  2 37  1  0  0  0  0
 37 38  2  0  0  0  0
M  END
>  <CdId>
358928

>  <Mol Weight>
539.976

>  <Formula>
C29H25ClF3N3O2

>  <cmpd_chemblid>
CHEMBL4108249

>  <std_type>
Ki

>  <std_value>
18.63

>  <std_unit>
nM

>  <target_id>
CHEMBL2016

>  <target_name>
Coagulation factor IX

>  <organism>
Homo sapiens

>  <target_type>
SINGLE PROTEIN

$$$$

  Mrv0541 08052111042D          

 47 52  0  0  1  0            999 V2000
    8.6329   -2.2539    0.0000 C   0  0  0  0  0  0  0  0  0  0  0  0
    8.2204   -1.5395    0.0000 O   0  0  0  0  0  0  0  0  0  0  0  0
    7.3954   -1.5395    0.0000 C   0  0  0  0  0  0  0  0  0  0  0  0
    6.9829   -2.2539    0.0000 O   0  0  0  0  0  0  0  0  0  0  0  0
    6.9829   -0.8250    0.0000 N   0  0  0  0  0  0  0  0  0  0  0  0
    6.1579   -0.8250    0.0000 C   0  0  0  0  0  0  0  0  0  0  0  0
    5.7454   -0.1105    0.0000 C   0  0  0  0  0  0  0  0  0  0  0  0
    4.9204   -0.1105    0.0000 C   0  0  0  0  0  0  0  0  0  0  0  0
    4.5079   -0.8250    0.0000 C   0  0  0  0  0  0  0  0  0  0  0  0
    4.9204   -1.5395    0.0000 C   0  0  0  0  0  0  0  0  0  0  0  0
    5.7454   -1.5395    0.0000 C   0  0  0  0  0  0  0  0  0  0  0  0
    4.5079   -2.2539    0.0000 N   0  0  0  0  0  0  0  0  0  0  0  0
    4.9204   -2.9684    0.0000 C   0  0  0  0  0  0  0  0  0  0  0  0
    5.7454   -2.9684    0.0000 O   0  0  0  0  0  0  0  0  0  0  0  0
    4.5079   -3.6829    0.0000 C   0  0  2  0  0  0  0  0  0  0  0  0
    4.9204   -4.3974    0.0000 C   0  0  0  0  0  0  0  0  0  0  0  0
    3.6829   -3.6829    0.0000 C   0  0  0  0  0  0  0  0  0  0  0  0
    3.2704   -2.9684    0.0000 C   0  0  0  0  0  0  0  0  0  0  0  0
    2.4454   -2.9684    0.0000 C   0  0  0  0  0  0  0  0  0  0  0  0
    2.0329   -2.2539    0.0000 C   0  0  2  0  0  0  0  0  0  0  0  0
    1.2079   -2.2539    0.0000 N   0  0  0  0  0  0  0  0  0  0  0  0
    0.7954   -2.9684    0.0000 C   0  0  0  0  0  0  0  0  0  0  0  0
   -0.0296   -2.9684    0.0000 C   0  0  0  0  0  0  0  0  0  0  0  0
   -0.4421   -2.2539    0.0000 C   0  0  0  0  0  0  0  0  0  0  0  0
   -1.2671   -2.2539    0.0000 C   0  0  0  0  0  0  0  0  0  0  0  0
   -1.6796   -2.9684    0.0000 C   0  0  0  0  0  0  0  0  0  0  0  0
   -1.2671   -3.6829    0.0000 C   0  0  0  0  0  0  0  0  0  0  0  0
   -0.8546   -4.3974    0.0000 N   0  0  0  0  0  0  0  0  0  0  0  0
   -2.5046   -2.9684    0.0000 C   0  0  0  0  0  0  0  0  0  0  0  0
   -2.9171   -2.2539    0.0000 C   0  0  0  0  0  0  0  0  0  0  0  0
   -2.5046   -1.5395    0.0000 C   0  0  0  0  0  0  0  0  0  0  0  0
   -2.7596   -0.7548    0.0000 C   0  0  0  0  0  0  0  0  0  0  0  0
   -3.5442   -0.4999    0.0000 N   0  0  0  0  0  0  0  0  0  0  0  0
   -2.0921   -0.2699    0.0000 N   0  0  0  0  0  0  0  0  0  0  0  0
   -1.4247   -0.7548    0.0000 O   0  0  0  0  0  0  0  0  0  0  0  0
   -1.6796   -1.5395    0.0000 C   0  0  0  0  0  0  0  0  0  0  0  0
   -0.0296   -1.5395    0.0000 C   0  0  0  0  0  0  0  0  0  0  0  0
    0.7954   -1.5395    0.0000 C   0  0  0  0  0  0  0  0  0  0  0  0
    1.2079   -0.8250    0.0000 O   0  0  0  0  0  0  0  0  0  0  0  0
    2.4454   -1.5395    0.0000 C   0  0  0  0  0  0  0  0  0  0  0  0
    3.2704   -1.5395    0.0000 C   0  0  0  0  0  0  0  0  0  0  0  0
    3.6829   -0.8250    0.0000 C   0  0  0  0  0  0  0  0  0  0  0  0
    3.2704   -0.1105    0.0000 C   0  0  0  0  0  0  0  0  0  0  0  0
    2.4454   -0.1105    0.0000 C   0  0  0  0  0  0  0  0  0  0  0  0
    2.0329    0.6039    0.0000 O   0  0  0  0  0  0  0  0  0  0  0  0
    1.2079    0.6039    0.0000 C   0  0  0  0  0  0  0  0  0  0  0  0
    2.0329   -0.8250    0.0000 N   0  0  0  0  0  0  0  0  0  0  0  0
  1  2  1  0  0  0  0
  2  3  1  0  0  0  0
  3  4  2  0  0  0  0
  3  5  1  0  0  0  0
  5  6  1  0  0  0  0
  6  7  4  0  0  0  0
  7  8  4  0  0  0  0
  8  9  4  0  0  0  0
  9 10  4  0  0  0  0
 10 11  4  0  0  0  0
  6 11  4  0  0  0  0
 10 12  1  0  0  0  0
 12 13  1  0  0  0  0
 13 14  2  0  0  0  0
 13 15  1  0  0  0  0
 15 16  1  6  0  0  0
 15 17  1  0  0  0  0
 17 18  1  0  0  0  0
 18 19  1  0  0  0  0
 19 20  1  0  0  0  0
 20 21  1  6  0  0  0
 21 22  1  0  0  0  0
 22 23  1  0  0  0  0
 23 24  1  0  0  0  0
 24 25  1  0  0  0  0
 25 26  4  0  0  0  0
 26 27  1  0  0  0  0
 27 28  3  0  0  0  0
 26 29  4  0  0  0  0
 29 30  4  0  0  0  0
 30 31  4  0  0  0  0
 31 32  4  0  0  0  0
 32 33  1  0  0  0  0
 32 34  4  0  0  0  0
 34 35  4  0  0  0  0
 35 36  4  0  0  0  0
 25 36  4  0  0  0  0
 31 36  4  0  0  0  0
 24 37  2  0  0  0  0
 37 38  1  0  0  0  0
 21 38  1  0  0  0  0
 38 39  2  0  0  0  0
 20 40  1  0  0  0  0
 40 41  4  0  0  0  0
 41 42  4  0  0  0  0
  9 42  1  0  0  0  0
 42 43  4  0  0  0  0
 43 44  4  0  0  0  0
 44 45  1  0  0  0  0
 45 46  1  0  0  0  0
 44 47  4  0  0  0  0
 40 47  4  0  0  0  0
M  END
>  <CdId>
358930

>  <Mol Weight>
635.6691

>  <Formula>
C34H33N7O6

>  <cmpd_chemblid>
CHEMBL4112906

>  <std_type>
Ki

>  <std_value>
33.22

>  <std_unit>
nM

>  <target_id>
CHEMBL2016

>  <target_name>
Coagulation factor IX

>  <organism>
Homo sapiens

>  <target_type>
SINGLE PROTEIN

$$$$

  Mrv0541 08052111042D          

 32 35  0  0  0  0            999 V2000
   -1.4289   -4.9500    0.0000 C   0  0  0  0  0  0  0  0  0  0  0  0
   -2.1434   -4.5375    0.0000 C   0  0  0  0  0  0  0  0  0  0  0  0
   -2.8579   -4.9500    0.0000 C   0  0  0  0  0  0  0  0  0  0  0  0
   -3.5724   -4.5375    0.0000 C   0  0  0  0  0  0  0  0  0  0  0  0
   -3.5724   -3.7125    0.0000 C   0  0  0  0  0  0  0  0  0  0  0  0
   -2.8579   -3.3000    0.0000 C   0  0  0  0  0  0  0  0  0  0  0  0
   -2.1434   -3.7125    0.0000 C   0  0  0  0  0  0  0  0  0  0  0  0
   -1.4289   -3.3000    0.0000 N   0  0  0  0  0  0  0  0  0  0  0  0
   -0.7145   -3.7125    0.0000 C   0  0  0  0  0  0  0  0  0  0  0  0
   -0.7145   -4.5375    0.0000 O   0  0  0  0  0  0  0  0  0  0  0  0
    0.0000   -3.3000    0.0000 O   0  0  0  0  0  0  0  0  0  0  0  0
    0.7145   -3.7125    0.0000 C   0  0  0  0  0  0  0  0  0  0  0  0
    1.4289   -3.3000    0.0000 C   0  0  0  0  0  0  0  0  0  0  0  0
    2.1434   -3.7125    0.0000 O   0  0  0  0  0  0  0  0  0  0  0  0
    2.8579   -3.3000    0.0000 C   0  0  0  0  0  0  0  0  0  0  0  0
    2.8579   -2.4750    0.0000 C   0  0  0  0  0  0  0  0  0  0  0  0
    3.5724   -2.0625    0.0000 C   0  0  0  0  0  0  0  0  0  0  0  0
    4.2868   -2.4750    0.0000 C   0  0  0  0  0  0  0  0  0  0  0  0
    4.2868   -3.3000    0.0000 C   0  0  0  0  0  0  0  0  0  0  0  0
    4.8999   -3.8520    0.0000 S   0  0  0  0  0  0  0  0  0  0  0  0
    4.5644   -4.6057    0.0000 C   0  0  0  0  0  0  0  0  0  0  0  0
    4.9769   -5.3202    0.0000 C   0  0  0  0  0  0  0  0  0  0  0  0
    5.8019   -5.3202    0.0000 N   0  0  0  0  0  0  0  0  0  0  0  0
    4.5644   -6.0346    0.0000 N   0  0  0  0  0  0  0  0  0  0  0  0
    3.7439   -4.5195    0.0000 C   0  0  0  0  0  0  0  0  0  0  0  0
    3.5724   -3.7125    0.0000 C   0  0  0  0  0  0  0  0  0  0  0  0
    1.4289   -2.4750    0.0000 C   0  0  0  0  0  0  0  0  0  0  0  0
    0.7145   -2.0625    0.0000 C   0  0  0  0  0  0  0  0  0  0  0  0
    0.7145   -1.2375    0.0000 C   0  0  0  0  0  0  0  0  0  0  0  0
    1.4289   -0.8250    0.0000 C   0  0  0  0  0  0  0  0  0  0  0  0
    2.1434   -1.2375    0.0000 C   0  0  0  0  0  0  0  0  0  0  0  0
    2.1434   -2.0625    0.0000 C   0  0  0  0  0  0  0  0  0  0  0  0
  1  2  1  0  0  0  0
  2  3  4  0  0  0  0
  3  4  4  0  0  0  0
  4  5  4  0  0  0  0
  5  6  4  0  0  0  0
  6  7  4  0  0  0  0
  2  7  4  0  0  0  0
  7  8  1  0  0  0  0
  8  9  1  0  0  0  0
  9 10  2  0  0  0  0
  9 11  1  0  0  0  0
 11 12  1  0  0  0  0
 12 13  1  0  0  0  0
 13 14  1  0  0  0  0
 14 15  1  0  0  0  0
 15 16  4  0  0  0  0
 16 17  4  0  0  0  0
 17 18  4  0  0  0  0
 18 19  4  0  0  0  0
 19 20  4  0  0  0  0
 20 21  4  0  0  0  0
 21 22  1  0  0  0  0
 22 23  2  0  0  0  0
 22 24  1  0  0  0  0
 21 25  4  0  0  0  0
 25 26  4  0  0  0  0
 15 26  4  0  0  0  0
 19 26  4  0  0  0  0
 13 27  1  0  0  0  0
 27 28  4  0  0  0  0
 28 29  4  0  0  0  0
 29 30  4  0  0  0  0
 30 31  4  0  0  0  0
 31 32  4  0  0  0  0
 27 32  4  0  0  0  0
M  END
>  <CdId>
358931

>  <Mol Weight>
445.533

>  <Formula>
C25H23N3O3S

>  <cmpd_chemblid>
CHEMBL604289

>  <std_type>
Ki

>  <std_value>
8.0

>  <std_unit>
nM

>  <target_id>
CHEMBL2016

>  <target_name>
Coagulation factor IX

>  <organism>
Homo sapiens

>  <target_type>
SINGLE PROTEIN

$$$$

  Mrv0541 08052111042D          

 42 47  0  0  1  0            999 V2000
    3.9849    3.9849    0.0000 C   0  0  0  0  0  0  0  0  0  0  0  0
    4.3974    3.2704    0.0000 C   0  0  2  0  0  0  0  0  0  0  0  0
    5.2224    3.2704    0.0000 C   0  0  0  0  0  0  0  0  0  0  0  0
    5.6349    2.5559    0.0000 C   0  0  0  0  0  0  0  0  0  0  0  0
    6.4599    2.5559    0.0000 C   0  0  0  0  0  0  0  0  0  0  0  0
    6.8724    1.8414    0.0000 C   0  0  2  0  0  0  0  0  0  0  0  0
    7.6974    1.8414    0.0000 N   0  0  0  0  0  0  0  0  0  0  0  0
    8.1099    2.5559    0.0000 C   0  0  0  0  0  0  0  0  0  0  0  0
    8.9349    2.5559    0.0000 C   0  0  0  0  0  0  0  0  0  0  0  0
    9.3474    1.8414    0.0000 C   0  0  0  0  0  0  0  0  0  0  0  0
   10.1724    1.8414    0.0000 C   0  0  0  0  0  0  0  0  0  0  0  0
   10.5849    2.5559    0.0000 C   0  0  0  0  0  0  0  0  0  0  0  0
   10.1724    3.2704    0.0000 C   0  0  0  0  0  0  0  0  0  0  0  0
    9.3519    3.3566    0.0000 C   0  0  0  0  0  0  0  0  0  0  0  0
    9.1803    4.1636    0.0000 N   0  0  0  0  0  0  0  0  0  0  0  0
    9.8948    4.5761    0.0000 N   0  0  0  0  0  0  0  0  0  0  0  0
    9.9811    5.3966    0.0000 C   0  0  0  0  0  0  0  0  0  0  0  0
   10.5079    4.0241    0.0000 C   0  0  0  0  0  0  0  0  0  0  0  0
   11.4099    2.5559    0.0000 C   0  0  0  0  0  0  0  0  0  0  0  0
   11.8224    1.8414    0.0000 C   0  0  0  0  0  0  0  0  0  0  0  0
   11.4099    1.1270    0.0000 C   0  0  0  0  0  0  0  0  0  0  0  0
   11.8224    0.4125    0.0000 Cl  0  0  0  0  0  0  0  0  0  0  0  0
   10.5849    1.1270    0.0000 C   0  0  0  0  0  0  0  0  0  0  0  0
   10.1724    0.4125    0.0000 F   0  0  0  0  0  0  0  0  0  0  0  0
    8.9349    1.1270    0.0000 C   0  0  0  0  0  0  0  0  0  0  0  0
    8.1099    1.1270    0.0000 C   0  0  0  0  0  0  0  0  0  0  0  0
    7.6974    0.4125    0.0000 O   0  0  0  0  0  0  0  0  0  0  0  0
    6.4599    1.1270    0.0000 C   0  0  0  0  0  0  0  0  0  0  0  0
    5.6349    1.1270    0.0000 C   0  0  0  0  0  0  0  0  0  0  0  0
    5.2224    0.4125    0.0000 C   0  0  0  0  0  0  0  0  0  0  0  0
    5.6349   -0.3020    0.0000 C   0  0  0  0  0  0  0  0  0  0  0  0
    6.4599   -0.3020    0.0000 C   0  0  0  0  0  0  0  0  0  0  0  0
    6.8724    0.4125    0.0000 N   0  0  0  0  0  0  0  0  0  0  0  0
    4.3974    0.4125    0.0000 C   0  0  0  0  0  0  0  0  0  0  0  0
    3.9849   -0.3020    0.0000 C   0  0  0  0  0  0  0  0  0  0  0  0
    3.1599   -0.3020    0.0000 C   0  0  0  0  0  0  0  0  0  0  0  0
    2.7474    0.4125    0.0000 C   0  0  0  0  0  0  0  0  0  0  0  0
    3.1599    1.1270    0.0000 C   0  0  0  0  0  0  0  0  0  0  0  0
    3.9849    1.1270    0.0000 C   0  0  0  0  0  0  0  0  0  0  0  0
    4.3974    1.8414    0.0000 N   0  0  0  0  0  0  0  0  0  0  0  0
    3.9849    2.5559    0.0000 C   0  0  0  0  0  0  0  0  0  0  0  0
    3.1599    2.5559    0.0000 O   0  0  0  0  0  0  0  0  0  0  0  0
  2  1  1  6  0  0  0
  2  3  1  0  0  0  0
  3  4  1  0  0  0  0
  4  5  1  0  0  0  0
  5  6  1  0  0  0  0
  6  7  1  6  0  0  0
  7  8  1  0  0  0  0
  8  9  1  0  0  0  0
  9 10  1  0  0  0  0
 10 11  1  0  0  0  0
 11 12  4  0  0  0  0
 12 13  1  0  0  0  0
 13 14  4  0  0  0  0
 14 15  4  0  0  0  0
 15 16  4  0  0  0  0
 16 17  1  0  0  0  0
 16 18  4  0  0  0  0
 13 18  4  0  0  0  0
 12 19  4  0  0  0  0
 19 20  4  0  0  0  0
 20 21  4  0  0  0  0
 21 22  1  0  0  0  0
 21 23  4  0  0  0  0
 11 23  4  0  0  0  0
 23 24  1  0  0  0  0
 10 25  2  0  0  0  0
 25 26  1  0  0  0  0
  7 26  1  0  0  0  0
 26 27  2  0  0  0  0
  6 28  1  0  0  0  0
 28 29  4  0  0  0  0
 29 30  4  0  0  0  0
 30 31  4  0  0  0  0
 31 32  4  0  0  0  0
 32 33  4  0  0  0  0
 28 33  4  0  0  0  0
 30 34  1  0  0  0  0
 34 35  4  0  0  0  0
 35 36  4  0  0  0  0
 36 37  4  0  0  0  0
 37 38  4  0  0  0  0
 38 39  4  0  0  0  0
 34 39  4  0  0  0  0
 39 40  1  0  0  0  0
 40 41  1  0  0  0  0
  2 41  1  0  0  0  0
 41 42  2  0  0  0  0
M  END
>  <CdId>
358932

>  <Mol Weight>
584.083

>  <Formula>
C33H31ClFN5O2

>  <cmpd_chemblid>
CHEMBL4112391

>  <std_type>
Ki

>  <std_value>
3.31

>  <std_unit>
nM

>  <target_id>
CHEMBL2016

>  <target_name>
Coagulation factor IX

>  <organism>
Homo sapiens

>  <target_type>
SINGLE PROTEIN

$$$$

  Mrv0541 08052111042D          

 33 36  0  0  0  0            999 V2000
   -2.8579   -4.1250    0.0000 C   0  0  0  0  0  0  0  0  0  0  0  0
   -2.1434   -3.7125    0.0000 C   0  0  0  0  0  0  0  0  0  0  0  0
   -2.1434   -2.8875    0.0000 O   0  0  0  0  0  0  0  0  0  0  0  0
   -1.4289   -4.1250    0.0000 N   0  0  0  0  0  0  0  0  0  0  0  0
   -1.4289   -4.9500    0.0000 C   0  0  0  0  0  0  0  0  0  0  0  0
   -0.7145   -5.3625    0.0000 C   0  0  0  0  0  0  0  0  0  0  0  0
    0.0000   -4.9500    0.0000 N   0  0  0  0  0  0  0  0  0  0  0  0
    0.7145   -5.3625    0.0000 C   0  0  0  0  0  0  0  0  0  0  0  0
    1.4289   -4.9500    0.0000 C   0  0  0  0  0  0  0  0  0  0  0  0
    2.1434   -5.3625    0.0000 C   0  0  0  0  0  0  0  0  0  0  0  0
    2.1434   -6.1875    0.0000 C   0  0  0  0  0  0  0  0  0  0  0  0
    2.8579   -6.6000    0.0000 C   0  0  0  0  0  0  0  0  0  0  0  0
    1.4289   -6.6000    0.0000 C   0  0  0  0  0  0  0  0  0  0  0  0
    0.7145   -6.1875    0.0000 C   0  0  0  0  0  0  0  0  0  0  0  0
    0.0000   -4.1250    0.0000 C   0  0  0  0  0  0  0  0  0  0  0  0
    0.7145   -3.7125    0.0000 O   0  0  0  0  0  0  0  0  0  0  0  0
   -0.7145   -3.7125    0.0000 C   0  0  0  0  0  0  0  0  0  0  0  0
   -0.7145   -2.8875    0.0000 C   0  0  0  0  0  0  0  0  0  0  0  0
   -1.4289   -2.4750    0.0000 O   0  0  0  0  0  0  0  0  0  0  0  0
    0.0000   -2.4750    0.0000 C   0  0  0  0  0  0  0  0  0  0  0  0
    0.7145   -2.8875    0.0000 O   0  0  0  0  0  0  0  0  0  0  0  0
    0.0000   -1.6500    0.0000 N   0  0  0  0  0  0  0  0  0  0  0  0
    0.7145   -1.2375    0.0000 C   0  0  0  0  0  0  0  0  0  0  0  0
    0.7145   -0.4125    0.0000 C   0  0  0  0  0  0  0  0  0  0  0  0
    1.4289    0.0000    0.0000 C   0  0  0  0  0  0  0  0  0  0  0  0
    2.1434   -0.4125    0.0000 C   0  0  0  0  0  0  0  0  0  0  0  0
    2.8579    0.0000    0.0000 C   0  0  0  0  0  0  0  0  0  0  0  0
    2.8579    0.8250    0.0000 N   0  0  0  0  0  0  0  0  0  0  0  0
    3.5724   -0.4125    0.0000 N   0  0  0  0  0  0  0  0  0  0  0  0
    3.5724   -1.2375    0.0000 C   0  0  0  0  0  0  0  0  0  0  0  0
    2.8579   -1.6500    0.0000 C   0  0  0  0  0  0  0  0  0  0  0  0
    2.1434   -1.2375    0.0000 C   0  0  0  0  0  0  0  0  0  0  0  0
    1.4289   -1.6500    0.0000 C   0  0  0  0  0  0  0  0  0  0  0  0
  1  2  1  0  0  0  0
  2  3  2  0  0  0  0
  2  4  1  0  0  0  0
  4  5  1  0  0  0  0
  5  6  1  0  0  0  0
  6  7  1  0  0  0  0
  7  8  1  0  0  0  0
  8  9  4  0  0  0  0
  9 10  4  0  0  0  0
 10 11  4  0  0  0  0
 11 12  1  0  0  0  0
 11 13  4  0  0  0  0
 13 14  4  0  0  0  0
  8 14  4  0  0  0  0
  7 15  1  0  0  0  0
 15 16  2  0  0  0  0
 15 17  1  0  0  0  0
  4 17  1  0  0  0  0
 17 18  1  0  0  0  0
 18 19  1  0  0  0  0
 18 20  1  0  0  0  0
 20 21  2  0  0  0  0
 20 22  1  0  0  0  0
 22 23  1  0  0  0  0
 23 24  4  0  0  0  0
 24 25  4  0  0  0  0
 25 26  4  0  0  0  0
 26 27  4  0  0  0  0
 27 28  1  0  0  0  0
 27 29  4  0  0  0  0
 29 30  4  0  0  0  0
 30 31  4  0  0  0  0
 31 32  4  0  0  0  0
 26 32  4  0  0  0  0
 32 33  4  0  0  0  0
 23 33  4  0  0  0  0
M  END
>  <CdId>
358934

>  <Mol Weight>
447.4864

>  <Formula>
C24H25N5O4

>  <cmpd_chemblid>
CHEMBL3658392

>  <std_type>
Ki

>  <std_value>
30.0

>  <std_unit>
nM

>  <target_id>
CHEMBL2016

>  <target_name>
Coagulation factor IX

>  <organism>
Homo sapiens

>  <target_type>
SINGLE PROTEIN

$$$$

  Mrv0541 08052111042D          

 43 47  0  0  1  0            999 V2000
    8.6329   -2.2539    0.0000 C   0  0  0  0  0  0  0  0  0  0  0  0
    8.2204   -1.5395    0.0000 O   0  0  0  0  0  0  0  0  0  0  0  0
    7.3954   -1.5395    0.0000 C   0  0  0  0  0  0  0  0  0  0  0  0
    6.9829   -2.2539    0.0000 O   0  0  0  0  0  0  0  0  0  0  0  0
    6.9829   -0.8250    0.0000 N   0  0  0  0  0  0  0  0  0  0  0  0
    6.1579   -0.8250    0.0000 C   0  0  0  0  0  0  0  0  0  0  0  0
    5.7454   -0.1105    0.0000 C   0  0  0  0  0  0  0  0  0  0  0  0
    4.9204   -0.1105    0.0000 C   0  0  0  0  0  0  0  0  0  0  0  0
    4.5079   -0.8250    0.0000 C   0  0  0  0  0  0  0  0  0  0  0  0
    4.9204   -1.5395    0.0000 C   0  0  0  0  0  0  0  0  0  0  0  0
    5.7454   -1.5395    0.0000 C   0  0  0  0  0  0  0  0  0  0  0  0
    4.5079   -2.2539    0.0000 N   0  0  0  0  0  0  0  0  0  0  0  0
    4.9204   -2.9684    0.0000 C   0  0  0  0  0  0  0  0  0  0  0  0
    5.7454   -2.9684    0.0000 O   0  0  0  0  0  0  0  0  0  0  0  0
    4.5079   -3.6829    0.0000 C   0  0  2  0  0  0  0  0  0  0  0  0
    4.9204   -4.3974    0.0000 C   0  0  0  0  0  0  0  0  0  0  0  0
    3.6829   -3.6829    0.0000 C   0  0  0  0  0  0  0  0  0  0  0  0
    3.2704   -2.9684    0.0000 C   0  0  0  0  0  0  0  0  0  0  0  0
    2.4454   -2.9684    0.0000 C   0  0  0  0  0  0  0  0  0  0  0  0
    2.0329   -2.2539    0.0000 C   0  0  2  0  0  0  0  0  0  0  0  0
    1.2079   -2.2539    0.0000 N   0  0  0  0  0  0  0  0  0  0  0  0
    0.7954   -2.9684    0.0000 C   0  0  0  0  0  0  0  0  0  0  0  0
   -0.0296   -2.9684    0.0000 C   0  0  0  0  0  0  0  0  0  0  0  0
   -0.4421   -2.2539    0.0000 C   0  0  0  0  0  0  0  0  0  0  0  0
   -1.2671   -2.2539    0.0000 C   0  0  0  0  0  0  0  0  0  0  0  0
   -1.6796   -2.9684    0.0000 C   0  0  0  0  0  0  0  0  0  0  0  0
   -1.2671   -3.6829    0.0000 C   0  0  0  0  0  0  0  0  0  0  0  0
   -0.8546   -4.3974    0.0000 N   0  0  0  0  0  0  0  0  0  0  0  0
   -2.5046   -2.9684    0.0000 C   0  0  0  0  0  0  0  0  0  0  0  0
   -2.9171   -2.2539    0.0000 C   0  0  0  0  0  0  0  0  0  0  0  0
   -2.5046   -1.5395    0.0000 C   0  0  0  0  0  0  0  0  0  0  0  0
   -2.9171   -0.8250    0.0000 C   0  0  0  0  0  0  0  0  0  0  0  0
   -1.6796   -1.5395    0.0000 C   0  0  0  0  0  0  0  0  0  0  0  0
   -1.2671   -0.8250    0.0000 F   0  0  0  0  0  0  0  0  0  0  0  0
   -0.0296   -1.5395    0.0000 C   0  0  0  0  0  0  0  0  0  0  0  0
    0.7954   -1.5395    0.0000 C   0  0  0  0  0  0  0  0  0  0  0  0
    1.2079   -0.8250    0.0000 O   0  0  0  0  0  0  0  0  0  0  0  0
    2.4454   -1.5395    0.0000 C   0  0  0  0  0  0  0  0  0  0  0  0
    3.2704   -1.5395    0.0000 C   0  0  0  0  0  0  0  0  0  0  0  0
    3.6829   -0.8250    0.0000 C   0  0  0  0  0  0  0  0  0  0  0  0
    3.2704   -0.1105    0.0000 C   0  0  0  0  0  0  0  0  0  0  0  0
    2.4454   -0.1105    0.0000 C   0  0  0  0  0  0  0  0  0  0  0  0
    2.0329   -0.8250    0.0000 N   0  0  0  0  0  0  0  0  0  0  0  0
  1  2  1  0  0  0  0
  2  3  1  0  0  0  0
  3  4  2  0  0  0  0
  3  5  1  0  0  0  0
  5  6  1  0  0  0  0
  6  7  4  0  0  0  0
  7  8  4  0  0  0  0
  8  9  4  0  0  0  0
  9 10  4  0  0  0  0
 10 11  4  0  0  0  0
  6 11  4  0  0  0  0
 10 12  1  0  0  0  0
 12 13  1  0  0  0  0
 13 14  2  0  0  0  0
 13 15  1  0  0  0  0
 15 16  1  6  0  0  0
 15 17  1  0  0  0  0
 17 18  1  0  0  0  0
 18 19  1  0  0  0  0
 19 20  1  0  0  0  0
 20 21  1  6  0  0  0
 21 22  1  0  0  0  0
 22 23  1  0  0  0  0
 23 24  1  0  0  0  0
 24 25  1  0  0  0  0
 25 26  4  0  0  0  0
 26 27  1  0  0  0  0
 27 28  3  0  0  0  0
 26 29  4  0  0  0  0
 29 30  4  0  0  0  0
 30 31  4  0  0  0  0
 31 32  1  0  0  0  0
 31 33  4  0  0  0  0
 25 33  4  0  0  0  0
 33 34  1  0  0  0  0
 24 35  2  0  0  0  0
 35 36  1  0  0  0  0
 21 36  1  0  0  0  0
 36 37  2  0  0  0  0
 20 38  1  0  0  0  0
 38 39  4  0  0  0  0
 39 40  4  0  0  0  0
  9 40  1  0  0  0  0
 40 41  4  0  0  0  0
 41 42  4  0  0  0  0
 42 43  4  0  0  0  0
 38 43  4  0  0  0  0
M  END
>  <CdId>
358935

>  <Mol Weight>
581.6367

>  <Formula>
C33H32FN5O4

>  <cmpd_chemblid>
CHEMBL4113824

>  <std_type>
Ki

>  <std_value>
0.09

>  <std_unit>
nM

>  <target_id>
CHEMBL2016

>  <target_name>
Coagulation factor IX

>  <organism>
Homo sapiens

>  <target_type>
SINGLE PROTEIN

$$$$

  Mrv0541 08052111042D          

 38 42  0  0  1  0            999 V2000
    3.9849    3.9849    0.0000 C   0  0  0  0  0  0  0  0  0  0  0  0
    4.3974    3.2704    0.0000 C   0  0  2  0  0  0  0  0  0  0  0  0
    5.2224    3.2704    0.0000 C   0  0  0  0  0  0  0  0  0  0  0  0
    5.6349    2.5559    0.0000 C   0  0  0  0  0  0  0  0  0  0  0  0
    6.4599    2.5559    0.0000 C   0  0  0  0  0  0  0  0  0  0  0  0
    6.8724    1.8414    0.0000 C   0  0  2  0  0  0  0  0  0  0  0  0
    7.6974    1.8414    0.0000 N   0  0  0  0  0  0  0  0  0  0  0  0
    8.1099    2.5559    0.0000 C   0  0  0  0  0  0  0  0  0  0  0  0
    8.9349    2.5559    0.0000 C   0  0  0  0  0  0  0  0  0  0  0  0
    9.3474    1.8414    0.0000 C   0  0  0  0  0  0  0  0  0  0  0  0
   10.1724    1.8414    0.0000 C   0  0  0  0  0  0  0  0  0  0  0  0
   10.5849    2.5559    0.0000 C   0  0  0  0  0  0  0  0  0  0  0  0
   10.1724    3.2704    0.0000 F   0  0  0  0  0  0  0  0  0  0  0  0
   11.4099    2.5559    0.0000 C   0  0  0  0  0  0  0  0  0  0  0  0
   11.8224    1.8414    0.0000 C   0  0  0  0  0  0  0  0  0  0  0  0
   11.4099    1.1270    0.0000 C   0  0  0  0  0  0  0  0  0  0  0  0
   11.8224    0.4125    0.0000 Cl  0  0  0  0  0  0  0  0  0  0  0  0
   10.5849    1.1270    0.0000 C   0  0  0  0  0  0  0  0  0  0  0  0
   10.1724    0.4125    0.0000 F   0  0  0  0  0  0  0  0  0  0  0  0
    8.9349    1.1270    0.0000 C   0  0  0  0  0  0  0  0  0  0  0  0
    8.1099    1.1270    0.0000 C   0  0  0  0  0  0  0  0  0  0  0  0
    7.6974    0.4125    0.0000 O   0  0  0  0  0  0  0  0  0  0  0  0
    6.4599    1.1270    0.0000 C   0  0  0  0  0  0  0  0  0  0  0  0
    5.6349    1.1270    0.0000 C   0  0  0  0  0  0  0  0  0  0  0  0
    5.2224    0.4125    0.0000 C   0  0  0  0  0  0  0  0  0  0  0  0
    5.6349   -0.3020    0.0000 C   0  0  0  0  0  0  0  0  0  0  0  0
    6.4599   -0.3020    0.0000 C   0  0  0  0  0  0  0  0  0  0  0  0
    6.8724    0.4125    0.0000 N   0  0  0  0  0  0  0  0  0  0  0  0
    4.3974    0.4125    0.0000 C   0  0  0  0  0  0  0  0  0  0  0  0
    3.9849   -0.3020    0.0000 C   0  0  0  0  0  0  0  0  0  0  0  0
    3.1599   -0.3020    0.0000 C   0  0  0  0  0  0  0  0  0  0  0  0
    2.7474   -1.0164    0.0000 Br  0  0  0  0  0  0  0  0  0  0  0  0
    2.7474    0.4125    0.0000 C   0  0  0  0  0  0  0  0  0  0  0  0
    3.1599    1.1270    0.0000 C   0  0  0  0  0  0  0  0  0  0  0  0
    3.9849    1.1270    0.0000 C   0  0  0  0  0  0  0  0  0  0  0  0
    4.3974    1.8414    0.0000 N   0  0  0  0  0  0  0  0  0  0  0  0
    3.9849    2.5559    0.0000 C   0  0  0  0  0  0  0  0  0  0  0  0
    3.1599    2.5559    0.0000 O   0  0  0  0  0  0  0  0  0  0  0  0
  2  1  1  6  0  0  0
  2  3  1  0  0  0  0
  3  4  1  0  0  0  0
  4  5  1  0  0  0  0
  5  6  1  0  0  0  0
  6  7  1  6  0  0  0
  7  8  1  0  0  0  0
  8  9  1  0  0  0  0
  9 10  1  0  0  0  0
 10 11  1  0  0  0  0
 11 12  4  0  0  0  0
 12 13  1  0  0  0  0
 12 14  4  0  0  0  0
 14 15  4  0  0  0  0
 15 16  4  0  0  0  0
 16 17  1  0  0  0  0
 16 18  4  0  0  0  0
 11 18  4  0  0  0  0
 18 19  1  0  0  0  0
 10 20  2  0  0  0  0
 20 21  1  0  0  0  0
  7 21  1  0  0  0  0
 21 22  2  0  0  0  0
  6 23  1  0  0  0  0
 23 24  4  0  0  0  0
 24 25  4  0  0  0  0
 25 26  4  0  0  0  0
 26 27  4  0  0  0  0
 27 28  4  0  0  0  0
 23 28  4  0  0  0  0
 25 29  1  0  0  0  0
 29 30  4  0  0  0  0
 30 31  4  0  0  0  0
 31 32  1  0  0  0  0
 31 33  4  0  0  0  0
 33 34  4  0  0  0  0
 34 35  4  0  0  0  0
 29 35  4  0  0  0  0
 35 36  1  0  0  0  0
 36 37  1  0  0  0  0
  2 37  1  0  0  0  0
 37 38  2  0  0  0  0
M  END
>  <CdId>
358936

>  <Mol Weight>
600.882

>  <Formula>
C29H25BrClF2N3O2

>  <cmpd_chemblid>
CHEMBL4113604

>  <std_type>
Ki

>  <std_value>
69.57

>  <std_unit>
nM

>  <target_id>
CHEMBL2016

>  <target_name>
Coagulation factor IX

>  <organism>
Homo sapiens

>  <target_type>
SINGLE PROTEIN

$$$$

  Mrv0541 08052111042D          

 38 42  0  0  1  0            999 V2000
    3.9849    3.9849    0.0000 C   0  0  0  0  0  0  0  0  0  0  0  0
    4.3974    3.2704    0.0000 C   0  0  2  0  0  0  0  0  0  0  0  0
    5.2224    3.2704    0.0000 C   0  0  0  0  0  0  0  0  0  0  0  0
    5.6349    2.5559    0.0000 C   0  0  0  0  0  0  0  0  0  0  0  0
    6.4599    2.5559    0.0000 C   0  0  0  0  0  0  0  0  0  0  0  0
    6.8724    1.8414    0.0000 C   0  0  2  0  0  0  0  0  0  0  0  0
    7.6974    1.8414    0.0000 N   0  0  0  0  0  0  0  0  0  0  0  0
    8.1099    2.5559    0.0000 C   0  0  0  0  0  0  0  0  0  0  0  0
    8.9349    2.5559    0.0000 C   0  0  0  0  0  0  0  0  0  0  0  0
    9.3474    1.8414    0.0000 C   0  0  0  0  0  0  0  0  0  0  0  0
   10.1724    1.8414    0.0000 C   0  0  0  0  0  0  0  0  0  0  0  0
   10.5849    2.5559    0.0000 C   0  0  0  0  0  0  0  0  0  0  0  0
   10.1724    3.2704    0.0000 F   0  0  0  0  0  0  0  0  0  0  0  0
   11.4099    2.5559    0.0000 C   0  0  0  0  0  0  0  0  0  0  0  0
   11.8224    1.8414    0.0000 C   0  0  0  0  0  0  0  0  0  0  0  0
   11.4099    1.1270    0.0000 C   0  0  0  0  0  0  0  0  0  0  0  0
   11.8224    0.4125    0.0000 Cl  0  0  0  0  0  0  0  0  0  0  0  0
   10.5849    1.1270    0.0000 C   0  0  0  0  0  0  0  0  0  0  0  0
   10.1724    0.4125    0.0000 F   0  0  0  0  0  0  0  0  0  0  0  0
    8.9349    1.1270    0.0000 C   0  0  0  0  0  0  0  0  0  0  0  0
    8.1099    1.1270    0.0000 C   0  0  0  0  0  0  0  0  0  0  0  0
    7.6974    0.4125    0.0000 O   0  0  0  0  0  0  0  0  0  0  0  0
    6.4599    1.1270    0.0000 C   0  0  0  0  0  0  0  0  0  0  0  0
    5.6349    1.1270    0.0000 C   0  0  0  0  0  0  0  0  0  0  0  0
    5.2224    0.4125    0.0000 C   0  0  0  0  0  0  0  0  0  0  0  0
    5.6349   -0.3020    0.0000 C   0  0  0  0  0  0  0  0  0  0  0  0
    6.4599   -0.3020    0.0000 C   0  0  0  0  0  0  0  0  0  0  0  0
    6.8724    0.4125    0.0000 N   0  0  0  0  0  0  0  0  0  0  0  0
    4.3974    0.4125    0.0000 C   0  0  0  0  0  0  0  0  0  0  0  0
    3.9849   -0.3020    0.0000 C   0  0  0  0  0  0  0  0  0  0  0  0
    3.1599   -0.3020    0.0000 C   0  0  0  0  0  0  0  0  0  0  0  0
    2.7474    0.4125    0.0000 C   0  0  0  0  0  0  0  0  0  0  0  0
    1.9224    0.4125    0.0000 Br  0  0  0  0  0  0  0  0  0  0  0  0
    3.1599    1.1270    0.0000 C   0  0  0  0  0  0  0  0  0  0  0  0
    3.9849    1.1270    0.0000 C   0  0  0  0  0  0  0  0  0  0  0  0
    4.3974    1.8414    0.0000 N   0  0  0  0  0  0  0  0  0  0  0  0
    3.9849    2.5559    0.0000 C   0  0  0  0  0  0  0  0  0  0  0  0
    3.1599    2.5559    0.0000 O   0  0  0  0  0  0  0  0  0  0  0  0
  2  1  1  6  0  0  0
  2  3  1  0  0  0  0
  3  4  1  0  0  0  0
  4  5  1  0  0  0  0
  5  6  1  0  0  0  0
  6  7  1  6  0  0  0
  7  8  1  0  0  0  0
  8  9  1  0  0  0  0
  9 10  1  0  0  0  0
 10 11  1  0  0  0  0
 11 12  4  0  0  0  0
 12 13  1  0  0  0  0
 12 14  4  0  0  0  0
 14 15  4  0  0  0  0
 15 16  4  0  0  0  0
 16 17  1  0  0  0  0
 16 18  4  0  0  0  0
 11 18  4  0  0  0  0
 18 19  1  0  0  0  0
 10 20  2  0  0  0  0
 20 21  1  0  0  0  0
  7 21  1  0  0  0  0
 21 22  2  0  0  0  0
  6 23  1  0  0  0  0
 23 24  4  0  0  0  0
 24 25  4  0  0  0  0
 25 26  4  0  0  0  0
 26 27  4  0  0  0  0
 27 28  4  0  0  0  0
 23 28  4  0  0  0  0
 25 29  1  0  0  0  0
 29 30  4  0  0  0  0
 30 31  4  0  0  0  0
 31 32  4  0  0  0  0
 32 33  1  0  0  0  0
 32 34  4  0  0  0  0
 34 35  4  0  0  0  0
 29 35  4  0  0  0  0
 35 36  1  0  0  0  0
 36 37  1  0  0  0  0
  2 37  1  0  0  0  0
 37 38  2  0  0  0  0
M  END
>  <CdId>
358937

>  <Mol Weight>
600.882

>  <Formula>
C29H25BrClF2N3O2

>  <cmpd_chemblid>
CHEMBL4113728

>  <std_type>
Ki

>  <std_value>
79.18

>  <std_unit>
nM

>  <target_id>
CHEMBL2016

>  <target_name>
Coagulation factor IX

>  <organism>
Homo sapiens

>  <target_type>
SINGLE PROTEIN

$$$$

  Mrv0541 08052111042D          

 32 35  0  0  0  0            999 V2000
    3.5724   -7.0125    0.0000 C   0  0  0  0  0  0  0  0  0  0  0  0
    2.8579   -6.6000    0.0000 C   0  0  0  0  0  0  0  0  0  0  0  0
    3.2704   -5.8855    0.0000 C   0  0  0  0  0  0  0  0  0  0  0  0
    2.4454   -7.3145    0.0000 C   0  0  0  0  0  0  0  0  0  0  0  0
    2.1434   -6.1875    0.0000 C   0  0  0  0  0  0  0  0  0  0  0  0
    1.4289   -6.6000    0.0000 C   0  0  0  0  0  0  0  0  0  0  0  0
    0.7145   -6.1875    0.0000 C   0  0  0  0  0  0  0  0  0  0  0  0
    0.7145   -5.3625    0.0000 C   0  0  0  0  0  0  0  0  0  0  0  0
    0.0000   -4.9500    0.0000 C   0  0  0  0  0  0  0  0  0  0  0  0
   -0.7145   -5.3625    0.0000 C   0  0  0  0  0  0  0  0  0  0  0  0
   -1.4289   -4.9500    0.0000 C   0  0  0  0  0  0  0  0  0  0  0  0
   -1.4289   -4.1250    0.0000 C   0  0  0  0  0  0  0  0  0  0  0  0
   -0.7145   -3.7125    0.0000 C   0  0  0  0  0  0  0  0  0  0  0  0
   -0.7145   -2.8875    0.0000 C   0  0  0  0  0  0  0  0  0  0  0  0
   -1.4289   -2.4750    0.0000 O   0  0  0  0  0  0  0  0  0  0  0  0
    0.0000   -2.4750    0.0000 C   0  0  0  0  0  0  0  0  0  0  0  0
    0.7145   -2.8875    0.0000 O   0  0  0  0  0  0  0  0  0  0  0  0
    0.0000   -1.6500    0.0000 N   0  0  0  0  0  0  0  0  0  0  0  0
    0.7145   -1.2375    0.0000 C   0  0  0  0  0  0  0  0  0  0  0  0
    0.7145   -0.4125    0.0000 C   0  0  0  0  0  0  0  0  0  0  0  0
    1.4289    0.0000    0.0000 C   0  0  0  0  0  0  0  0  0  0  0  0
    2.1434   -0.4125    0.0000 C   0  0  0  0  0  0  0  0  0  0  0  0
    2.8579    0.0000    0.0000 C   0  0  0  0  0  0  0  0  0  0  0  0
    2.8579    0.8250    0.0000 N   0  0  0  0  0  0  0  0  0  0  0  0
    3.5724   -0.4125    0.0000 N   0  0  0  0  0  0  0  0  0  0  0  0
    3.5724   -1.2375    0.0000 C   0  0  0  0  0  0  0  0  0  0  0  0
    2.8579   -1.6500    0.0000 C   0  0  0  0  0  0  0  0  0  0  0  0
    2.1434   -1.2375    0.0000 C   0  0  0  0  0  0  0  0  0  0  0  0
    1.4289   -1.6500    0.0000 C   0  0  0  0  0  0  0  0  0  0  0  0
    0.0000   -4.1250    0.0000 C   0  0  0  0  0  0  0  0  0  0  0  0
    1.4289   -4.9500    0.0000 C   0  0  0  0  0  0  0  0  0  0  0  0
    2.1434   -5.3625    0.0000 C   0  0  0  0  0  0  0  0  0  0  0  0
  1  2  1  0  0  0  0
  2  3  1  0  0  0  0
  2  4  1  0  0  0  0
  2  5  1  0  0  0  0
  5  6  4  0  0  0  0
  6  7  4  0  0  0  0
  7  8  4  0  0  0  0
  8  9  1  0  0  0  0
  9 10  4  0  0  0  0
 10 11  4  0  0  0  0
 11 12  4  0  0  0  0
 12 13  4  0  0  0  0
 13 14  1  0  0  0  0
 14 15  1  0  0  0  0
 14 16  1  0  0  0  0
 16 17  2  0  0  0  0
 16 18  1  0  0  0  0
 18 19  1  0  0  0  0
 19 20  4  0  0  0  0
 20 21  4  0  0  0  0
 21 22  4  0  0  0  0
 22 23  4  0  0  0  0
 23 24  1  0  0  0  0
 23 25  4  0  0  0  0
 25 26  4  0  0  0  0
 26 27  4  0  0  0  0
 27 28  4  0  0  0  0
 22 28  4  0  0  0  0
 28 29  4  0  0  0  0
 19 29  4  0  0  0  0
 13 30  4  0  0  0  0
  9 30  4  0  0  0  0
  8 31  4  0  0  0  0
 31 32  4  0  0  0  0
  5 32  4  0  0  0  0
M  END
>  <CdId>
358938

>  <Mol Weight>
425.5222

>  <Formula>
C27H27N3O2

>  <cmpd_chemblid>
CHEMBL3959633

>  <std_type>
Ki

>  <std_value>
347.5

>  <std_unit>
nM

>  <target_id>
CHEMBL2016

>  <target_name>
Coagulation factor IX

>  <organism>
Homo sapiens

>  <target_type>
SINGLE PROTEIN

$$$$

  Mrv0541 08052111042D          

 40 43  0  0  1  0            999 V2000
    1.4289    2.4750    0.0000 C   0  0  0  0  0  0  0  0  0  0  0  0
    0.7145    2.0625    0.0000 O   0  0  0  0  0  0  0  0  0  0  0  0
    0.7145    1.2375    0.0000 C   0  0  0  0  0  0  0  0  0  0  0  0
    1.4289    0.8250    0.0000 O   0  0  0  0  0  0  0  0  0  0  0  0
    0.0000    0.8250    0.0000 C   0  0  1  0  0  0  0  0  0  0  0  0
    0.0000    0.0000    0.0000 C   0  0  0  0  0  0  0  0  0  0  0  0
    0.7145   -0.4125    0.0000 C   0  0  0  0  0  0  0  0  0  0  0  0
    1.4289    0.0000    0.0000 C   0  0  0  0  0  0  0  0  0  0  0  0
    2.1434   -0.4125    0.0000 C   0  0  0  0  0  0  0  0  0  0  0  0
    2.8579    0.0000    0.0000 C   0  0  0  0  0  0  0  0  0  0  0  0
    3.5724   -0.4125    0.0000 C   0  0  0  0  0  0  0  0  0  0  0  0
    3.5724   -1.2375    0.0000 N   0  0  0  0  0  0  0  0  0  0  0  0
    2.8579   -1.6500    0.0000 C   0  0  0  0  0  0  0  0  0  0  0  0
    2.8579   -2.4750    0.0000 N   0  0  0  0  0  0  0  0  0  0  0  0
    2.1434   -1.2375    0.0000 C   0  0  0  0  0  0  0  0  0  0  0  0
    1.4289   -1.6500    0.0000 C   0  0  0  0  0  0  0  0  0  0  0  0
    0.7145   -1.2375    0.0000 C   0  0  0  0  0  0  0  0  0  0  0  0
    0.0000   -1.6500    0.0000 O   0  0  0  0  0  0  0  0  0  0  0  0
   -0.7145   -1.2375    0.0000 C   0  0  0  0  0  0  0  0  0  0  0  0
   -0.3020   -0.5230    0.0000 F   0  0  0  0  0  0  0  0  0  0  0  0
   -1.1270   -1.9520    0.0000 F   0  0  0  0  0  0  0  0  0  0  0  0
   -1.4289   -0.8250    0.0000 F   0  0  0  0  0  0  0  0  0  0  0  0
   -0.7145    1.2375    0.0000 N   0  0  0  0  0  0  0  0  0  0  0  0
   -1.4681    0.9019    0.0000 C   0  0  0  0  0  0  0  0  0  0  0  0
   -2.0202    1.5150    0.0000 C   0  0  0  0  0  0  0  0  0  0  0  0
   -1.6077    2.2295    0.0000 C   0  0  2  0  0  0  0  0  0  0  0  0
   -1.9432    2.9832    0.0000 N   0  0  0  0  0  0  0  0  0  0  0  0
   -2.7637    3.0694    0.0000 S   0  0  0  0  0  0  0  0  0  0  0  0
   -2.6775    3.8899    0.0000 O   0  0  0  0  0  0  0  0  0  0  0  0
   -2.8500    2.2489    0.0000 O   0  0  0  0  0  0  0  0  0  0  0  0
   -3.5842    3.1557    0.0000 C   0  0  0  0  0  0  0  0  0  0  0  0
   -4.1362    2.5426    0.0000 C   0  0  0  0  0  0  0  0  0  0  0  0
   -4.8899    2.8781    0.0000 N   0  0  0  0  0  0  0  0  0  0  0  0
   -4.8037    3.6986    0.0000 C   0  0  0  0  0  0  0  0  0  0  0  0
   -5.4168    4.2506    0.0000 N   0  0  0  0  0  0  0  0  0  0  0  0
   -6.2014    3.9957    0.0000 C   0  0  0  0  0  0  0  0  0  0  0  0
   -5.2452    5.0576    0.0000 C   0  0  0  0  0  0  0  0  0  0  0  0
   -3.9967    3.8701    0.0000 S   0  0  0  0  0  0  0  0  0  0  0  0
   -0.8007    2.0580    0.0000 C   0  0  0  0  0  0  0  0  0  0  0  0
   -0.1876    2.6100    0.0000 O   0  0  0  0  0  0  0  0  0  0  0  0
  1  2  1  0  0  0  0
  2  3  1  0  0  0  0
  3  4  2  0  0  0  0
  3  5  1  0  0  0  0
  5  6  1  0  0  0  0
  6  7  1  0  0  0  0
  7  8  4  0  0  0  0
  8  9  4  0  0  0  0
  9 10  4  0  0  0  0
 10 11  4  0  0  0  0
 11 12  4  0  0  0  0
 12 13  4  0  0  0  0
 13 14  1  0  0  0  0
 13 15  4  0  0  0  0
  9 15  4  0  0  0  0
 15 16  4  0  0  0  0
 16 17  4  0  0  0  0
  7 17  4  0  0  0  0
 17 18  1  0  0  0  0
 18 19  1  0  0  0  0
 19 20  1  0  0  0  0
 19 21  1  0  0  0  0
 19 22  1  0  0  0  0
  5 23  1  1  0  0  0
 23 24  1  0  0  0  0
 24 25  1  0  0  0  0
 25 26  1  0  0  0  0
 26 27  1  6  0  0  0
 27 28  1  0  0  0  0
 28 29  2  0  0  0  0
 28 30  2  0  0  0  0
 28 31  1  0  0  0  0
 31 32  4  0  0  0  0
 32 33  4  0  0  0  0
 33 34  4  0  0  0  0
 34 35  1  0  0  0  0
 35 36  1  0  0  0  0
 35 37  1  0  0  0  0
 34 38  4  0  0  0  0
 31 38  4  0  0  0  0
 26 39  1  0  0  0  0
 23 39  1  0  0  0  0
 39 40  2  0  0  0  0
M  END
>  <CdId>
358939

>  <Mol Weight>
602.606

>  <Formula>
C23H25F3N6O6S2

>  <cmpd_chemblid>
CHEMBL3969066

>  <std_type>
Ki

>  <std_value>
320.0

>  <std_unit>
nM

>  <target_id>
CHEMBL2016

>  <target_name>
Coagulation factor IX

>  <organism>
Homo sapiens

>  <target_type>
SINGLE PROTEIN

$$$$

  Mrv0541 08052111042D          

 41 45  0  0  1  0            999 V2000
    1.6500   -3.6829    0.0000 C   0  0  0  0  0  0  0  0  0  0  0  0
    2.0625   -2.9684    0.0000 O   0  0  0  0  0  0  0  0  0  0  0  0
    1.6500   -2.2539    0.0000 C   0  0  0  0  0  0  0  0  0  0  0  0
    0.8250   -2.2539    0.0000 O   0  0  0  0  0  0  0  0  0  0  0  0
    2.0625   -1.5395    0.0000 C   0  0  0  0  0  0  0  0  0  0  0  0
    2.8875   -1.5395    0.0000 C   0  0  0  0  0  0  0  0  0  0  0  0
    3.3000   -0.8250    0.0000 C   0  0  0  0  0  0  0  0  0  0  0  0
    2.8875   -0.1105    0.0000 C   0  0  0  0  0  0  0  0  0  0  0  0
    2.0625   -0.1105    0.0000 C   0  0  0  0  0  0  0  0  0  0  0  0
    1.6500   -0.8250    0.0000 C   0  0  0  0  0  0  0  0  0  0  0  0
    0.8250   -0.8250    0.0000 C   0  0  0  0  0  0  0  0  0  0  0  0
    0.4125   -1.5395    0.0000 C   0  0  0  0  0  0  0  0  0  0  0  0
   -0.4125   -1.5395    0.0000 C   0  0  0  0  0  0  0  0  0  0  0  0
   -0.8250   -0.8250    0.0000 N   0  0  0  0  0  0  0  0  0  0  0  0
   -0.4125   -0.1105    0.0000 C   0  0  0  0  0  0  0  0  0  0  0  0
    0.4125   -0.1105    0.0000 C   0  0  0  0  0  0  0  0  0  0  0  0
   -0.8250    0.6039    0.0000 C   0  0  1  0  0  0  0  0  0  0  0  0
   -1.6500    0.6039    0.0000 N   0  0  0  0  0  0  0  0  0  0  0  0
   -2.0625   -0.1105    0.0000 C   0  0  0  0  0  0  0  0  0  0  0  0
   -2.8875   -0.1105    0.0000 C   0  0  0  0  0  0  0  0  0  0  0  0
   -3.3000    0.6039    0.0000 C   0  0  0  0  0  0  0  0  0  0  0  0
   -4.1250    0.6039    0.0000 C   0  0  0  0  0  0  0  0  0  0  0  0
   -4.5375   -0.1105    0.0000 C   0  0  0  0  0  0  0  0  0  0  0  0
   -4.1250   -0.8250    0.0000 F   0  0  0  0  0  0  0  0  0  0  0  0
   -5.3625   -0.1105    0.0000 C   0  0  0  0  0  0  0  0  0  0  0  0
   -5.7750    0.6039    0.0000 C   0  0  0  0  0  0  0  0  0  0  0  0
   -5.3625    1.3184    0.0000 C   0  0  0  0  0  0  0  0  0  0  0  0
   -5.7750    2.0329    0.0000 Cl  0  0  0  0  0  0  0  0  0  0  0  0
   -4.5375    1.3184    0.0000 C   0  0  0  0  0  0  0  0  0  0  0  0
   -4.1250    2.0329    0.0000 F   0  0  0  0  0  0  0  0  0  0  0  0
   -2.8875    1.3184    0.0000 C   0  0  0  0  0  0  0  0  0  0  0  0
   -2.0625    1.3184    0.0000 C   0  0  0  0  0  0  0  0  0  0  0  0
   -1.6500    2.0329    0.0000 O   0  0  0  0  0  0  0  0  0  0  0  0
   -0.4125    1.3184    0.0000 C   0  0  0  0  0  0  0  0  0  0  0  0
    0.4125    1.3184    0.0000 C   0  0  0  0  0  0  0  0  0  0  0  0
    0.8250    2.0329    0.0000 C   0  0  0  0  0  0  0  0  0  0  0  0
    1.6500    2.0329    0.0000 C   0  0  1  0  0  0  0  0  0  0  0  0
    2.0625    2.7474    0.0000 C   0  0  0  0  0  0  0  0  0  0  0  0
    2.0625    1.3184    0.0000 C   0  0  0  0  0  0  0  0  0  0  0  0
    2.8875    1.3184    0.0000 O   0  0  0  0  0  0  0  0  0  0  0  0
    1.6500    0.6039    0.0000 N   0  0  0  0  0  0  0  0  0  0  0  0
  1  2  1  0  0  0  0
  2  3  1  0  0  0  0
  3  4  2  0  0  0  0
  3  5  1  0  0  0  0
  5  6  4  0  0  0  0
  6  7  4  0  0  0  0
  7  8  4  0  0  0  0
  8  9  4  0  0  0  0
  9 10  4  0  0  0  0
  5 10  4  0  0  0  0
 10 11  1  0  0  0  0
 11 12  4  0  0  0  0
 12 13  4  0  0  0  0
 13 14  4  0  0  0  0
 14 15  4  0  0  0  0
 15 16  4  0  0  0  0
 11 16  4  0  0  0  0
 15 17  1  0  0  0  0
 17 18  1  1  0  0  0
 18 19  1  0  0  0  0
 19 20  1  0  0  0  0
 20 21  1  0  0  0  0
 21 22  1  0  0  0  0
 22 23  4  0  0  0  0
 23 24  1  0  0  0  0
 23 25  4  0  0  0  0
 25 26  4  0  0  0  0
 26 27  4  0  0  0  0
 27 28  1  0  0  0  0
 27 29  4  0  0  0  0
 22 29  4  0  0  0  0
 29 30  1  0  0  0  0
 21 31  2  0  0  0  0
 31 32  1  0  0  0  0
 18 32  1  0  0  0  0
 32 33  2  0  0  0  0
 17 34  1  0  0  0  0
 34 35  1  0  0  0  0
 35 36  1  0  0  0  0
 36 37  1  0  0  0  0
 37 38  1  1  0  0  0
 37 39  1  0  0  0  0
 39 40  2  0  0  0  0
 39 41  1  0  0  0  0
  9 41  1  0  0  0  0
M  END
>  <CdId>
358940

>  <Mol Weight>
580.022

>  <Formula>
C31H28ClF2N3O4

>  <cmpd_chemblid>
CHEMBL4106676

>  <std_type>
Ki

>  <std_value>
413.1

>  <std_unit>
nM

>  <target_id>
CHEMBL2016

>  <target_name>
Coagulation factor IX

>  <organism>
Homo sapiens

>  <target_type>
SINGLE PROTEIN

$$$$

  Mrv0541 08052111042D          

 31 35  0  0  1  0            999 V2000
   -0.5837    0.0165    0.0000 N   0  0  0  0  0  0  0  0  0  0  0  0
   -0.1712   -0.6979    0.0000 C   0  0  0  0  0  0  0  0  0  0  0  0
   -0.5837   -1.4124    0.0000 N   0  0  0  0  0  0  0  0  0  0  0  0
    0.6538   -0.6979    0.0000 C   0  0  0  0  0  0  0  0  0  0  0  0
    1.1387   -0.0305    0.0000 C   0  0  0  0  0  0  0  0  0  0  0  0
    1.9233   -0.2854    0.0000 C   0  0  0  0  0  0  0  0  0  0  0  0
    2.6378    0.1271    0.0000 C   0  0  0  0  0  0  0  0  0  0  0  0
    2.6378    0.9521    0.0000 O   0  0  0  0  0  0  0  0  0  0  0  0
    3.3523    1.3646    0.0000 C   0  0  1  0  0  0  0  0  0  0  0  0
    3.3523    2.1896    0.0000 C   0  0  0  0  0  0  0  0  0  0  0  0
    2.6378    2.6021    0.0000 C   0  0  0  0  0  0  0  0  0  0  0  0
    2.6378    3.4271    0.0000 C   0  0  0  0  0  0  0  0  0  0  0  0
    3.3523    3.8396    0.0000 C   0  0  0  0  0  0  0  0  0  0  0  0
    4.0668    3.4271    0.0000 C   0  0  0  0  0  0  0  0  0  0  0  0
    4.0668    2.6021    0.0000 C   0  0  0  0  0  0  0  0  0  0  0  0
    4.0668    0.9521    0.0000 C   0  0  0  0  0  0  0  0  0  0  0  0
    4.8204    1.2876    0.0000 N   0  0  0  0  0  0  0  0  0  0  0  0
    5.3725    0.6745    0.0000 C   0  0  0  0  0  0  0  0  0  0  0  0
    6.1929    0.7608    0.0000 C   0  0  0  0  0  0  0  0  0  0  0  0
    6.5285    1.5144    0.0000 C   0  0  0  0  0  0  0  0  0  0  0  0
    7.3490    1.6007    0.0000 C   0  0  0  0  0  0  0  0  0  0  0  0
    7.8339    0.9332    0.0000 C   0  0  0  0  0  0  0  0  0  0  0  0
    7.4983    0.1796    0.0000 C   0  0  0  0  0  0  0  0  0  0  0  0
    6.6779    0.0933    0.0000 C   0  0  0  0  0  0  0  0  0  0  0  0
    4.9600   -0.0400    0.0000 N   0  0  0  0  0  0  0  0  0  0  0  0
    4.1530    0.1316    0.0000 O   0  0  0  0  0  0  0  0  0  0  0  0
    3.3523   -0.2854    0.0000 C   0  0  0  0  0  0  0  0  0  0  0  0
    3.3523   -1.1104    0.0000 C   0  0  0  0  0  0  0  0  0  0  0  0
    2.6378   -1.5229    0.0000 C   0  0  0  0  0  0  0  0  0  0  0  0
    1.9233   -1.1104    0.0000 C   0  0  0  0  0  0  0  0  0  0  0  0
    1.1387   -1.3654    0.0000 S   0  0  0  0  0  0  0  0  0  0  0  0
  1  2  2  0  0  0  0
  2  3  1  0  0  0  0
  2  4  1  0  0  0  0
  4  5  4  0  0  0  0
  5  6  4  0  0  0  0
  6  7  4  0  0  0  0
  7  8  1  0  0  0  0
  9  8  1  1  0  0  0
  9 10  1  0  0  0  0
 10 11  4  0  0  0  0
 11 12  4  0  0  0  0
 12 13  4  0  0  0  0
 13 14  4  0  0  0  0
 14 15  4  0  0  0  0
 10 15  4  0  0  0  0
  9 16  1  0  0  0  0
 16 17  4  0  0  0  0
 17 18  4  0  0  0  0
 18 19  1  0  0  0  0
 19 20  4  0  0  0  0
 20 21  4  0  0  0  0
 21 22  4  0  0  0  0
 22 23  4  0  0  0  0
 23 24  4  0  0  0  0
 19 24  4  0  0  0  0
 18 25  4  0  0  0  0
 25 26  4  0  0  0  0
 16 26  4  0  0  0  0
  7 27  4  0  0  0  0
 27 28  4  0  0  0  0
 28 29  4  0  0  0  0
 29 30  4  0  0  0  0
  6 30  4  0  0  0  0
 30 31  4  0  0  0  0
  4 31  4  0  0  0  0
M  END
>  <CdId>
358941

>  <Mol Weight>
426.49

>  <Formula>
C24H18N4O2S

>  <cmpd_chemblid>
CHEMBL597991

>  <std_type>
Ki

>  <std_value>
270.0

>  <std_unit>
nM

>  <target_id>
CHEMBL2016

>  <target_name>
Coagulation factor IX

>  <organism>
Homo sapiens

>  <target_type>
SINGLE PROTEIN

$$$$

  Mrv0541 08052111042D          

 33 36  0  0  0  0            999 V2000
    2.1434   -5.3625    0.0000 C   0  0  0  0  0  0  0  0  0  0  0  0
    2.8579   -4.9500    0.0000 O   0  0  0  0  0  0  0  0  0  0  0  0
    3.5724   -5.3625    0.0000 C   0  0  0  0  0  0  0  0  0  0  0  0
    3.5724   -6.1875    0.0000 O   0  0  0  0  0  0  0  0  0  0  0  0
    4.2868   -4.9500    0.0000 C   0  0  0  0  0  0  0  0  0  0  0  0
    5.0013   -5.3625    0.0000 C   0  0  0  0  0  0  0  0  0  0  0  0
    5.7158   -4.9500    0.0000 C   0  0  0  0  0  0  0  0  0  0  0  0
    6.4302   -5.3625    0.0000 O   0  0  0  0  0  0  0  0  0  0  0  0
    7.1447   -4.9500    0.0000 C   0  0  0  0  0  0  0  0  0  0  0  0
    7.1447   -4.1250    0.0000 C   0  0  0  0  0  0  0  0  0  0  0  0
    7.8592   -3.7125    0.0000 C   0  0  0  0  0  0  0  0  0  0  0  0
    8.5737   -4.1250    0.0000 C   0  0  0  0  0  0  0  0  0  0  0  0
    8.5737   -4.9500    0.0000 C   0  0  0  0  0  0  0  0  0  0  0  0
    9.2881   -5.3625    0.0000 C   0  0  0  0  0  0  0  0  0  0  0  0
   10.0026   -4.9500    0.0000 C   0  0  0  0  0  0  0  0  0  0  0  0
   10.7171   -5.3625    0.0000 C   0  0  0  0  0  0  0  0  0  0  0  0
   10.7171   -6.1875    0.0000 C   0  0  0  0  0  0  0  0  0  0  0  0
   11.3302   -6.7395    0.0000 S   0  0  0  0  0  0  0  0  0  0  0  0
   10.9946   -7.4932    0.0000 C   0  0  0  0  0  0  0  0  0  0  0  0
   11.4071   -8.2077    0.0000 C   0  0  0  0  0  0  0  0  0  0  0  0
   12.2321   -8.2077    0.0000 N   0  0  0  0  0  0  0  0  0  0  0  0
   10.9946   -8.9221    0.0000 N   0  0  0  0  0  0  0  0  0  0  0  0
   10.1741   -7.4070    0.0000 C   0  0  0  0  0  0  0  0  0  0  0  0
   10.0026   -6.6000    0.0000 C   0  0  0  0  0  0  0  0  0  0  0  0
    9.2881   -6.1875    0.0000 C   0  0  0  0  0  0  0  0  0  0  0  0
    7.8592   -5.3625    0.0000 C   0  0  0  0  0  0  0  0  0  0  0  0
    5.7158   -4.1250    0.0000 C   0  0  0  0  0  0  0  0  0  0  0  0
    5.0013   -3.7125    0.0000 C   0  0  0  0  0  0  0  0  0  0  0  0
    5.0013   -2.8875    0.0000 C   0  0  0  0  0  0  0  0  0  0  0  0
    5.7158   -2.4750    0.0000 C   0  0  0  0  0  0  0  0  0  0  0  0
    5.7158   -1.6500    0.0000 Cl  0  0  0  0  0  0  0  0  0  0  0  0
    6.4302   -2.8875    0.0000 C   0  0  0  0  0  0  0  0  0  0  0  0
    6.4302   -3.7125    0.0000 C   0  0  0  0  0  0  0  0  0  0  0  0
  1  2  1  0  0  0  0
  2  3  1  0  0  0  0
  3  4  2  0  0  0  0
  3  5  1  0  0  0  0
  5  6  1  0  0  0  0
  6  7  1  0  0  0  0
  7  8  1  0  0  0  0
  8  9  1  0  0  0  0
  9 10  4  0  0  0  0
 10 11  4  0  0  0  0
 11 12  4  0  0  0  0
 12 13  4  0  0  0  0
 13 14  1  0  0  0  0
 14 15  4  0  0  0  0
 15 16  4  0  0  0  0
 16 17  4  0  0  0  0
 17 18  4  0  0  0  0
 18 19  4  0  0  0  0
 19 20  1  0  0  0  0
 20 21  2  0  0  0  0
 20 22  1  0  0  0  0
 19 23  4  0  0  0  0
 23 24  4  0  0  0  0
 17 24  4  0  0  0  0
 24 25  4  0  0  0  0
 14 25  4  0  0  0  0
 13 26  4  0  0  0  0
  9 26  4  0  0  0  0
  7 27  1  0  0  0  0
 27 28  4  0  0  0  0
 28 29  4  0  0  0  0
 29 30  4  0  0  0  0
 30 31  1  0  0  0  0
 30 32  4  0  0  0  0
 32 33  4  0  0  0  0
 27 33  4  0  0  0  0
M  END
>  <CdId>
358942

>  <Mol Weight>
478.99

>  <Formula>
C26H23ClN2O3S

>  <cmpd_chemblid>
CHEMBL596949

>  <std_type>
Ki

>  <std_value>
36.0

>  <std_unit>
nM

>  <target_id>
CHEMBL2016

>  <target_name>
Coagulation factor IX

>  <organism>
Homo sapiens

>  <target_type>
SINGLE PROTEIN

$$$$

  Mrv0541 08052111042D          

 41 46  0  0  1  0            999 V2000
    4.7674    0.7556    0.0000 C   0  0  0  0  0  0  0  0  0  0  0  0
    3.9604    0.5840    0.0000 C   0  0  0  0  0  0  0  0  0  0  0  0
    3.7054   -0.2006    0.0000 C   0  0  0  0  0  0  0  0  0  0  0  0
    2.8985   -0.3721    0.0000 C   0  0  0  0  0  0  0  0  0  0  0  0
    2.3464    0.2410    0.0000 C   0  0  0  0  0  0  0  0  0  0  0  0
    2.6014    1.0256    0.0000 C   0  0  0  0  0  0  0  0  0  0  0  0
    3.4084    1.1971    0.0000 C   0  0  0  0  0  0  0  0  0  0  0  0
    1.9339    1.5105    0.0000 C   0  0  0  0  0  0  0  0  0  0  0  0
    1.9339    2.3355    0.0000 C   0  0  0  0  0  0  0  0  0  0  0  0
    2.6484    2.7480    0.0000 C   0  0  0  0  0  0  0  0  0  0  0  0
    2.6484    3.5730    0.0000 C   0  0  0  0  0  0  0  0  0  0  0  0
    3.3629    3.9855    0.0000 O   0  0  0  0  0  0  0  0  0  0  0  0
    1.9339    3.9855    0.0000 O   0  0  0  0  0  0  0  0  0  0  0  0
    1.2665    1.0256    0.0000 C   0  0  0  0  0  0  0  0  0  0  0  0
    1.5214    0.2410    0.0000 N   0  0  0  0  0  0  0  0  0  0  0  0
    0.9694   -0.3721    0.0000 C   0  0  0  0  0  0  0  0  0  0  0  0
    0.1624   -0.2006    0.0000 C   0  0  1  0  0  0  0  0  0  0  0  0
    0.1336   -1.0251    0.0000 N   0  0  0  0  0  0  0  0  0  0  0  0
    0.8333   -1.4623    0.0000 C   0  0  0  0  0  0  0  0  0  0  0  0
    1.5617   -1.0750    0.0000 O   0  0  0  0  0  0  0  0  0  0  0  0
    0.8045   -2.2868    0.0000 C   0  0  0  0  0  0  0  0  0  0  0  0
    1.5041   -2.7240    0.0000 C   0  0  0  0  0  0  0  0  0  0  0  0
    1.4753   -3.5485    0.0000 C   0  0  0  0  0  0  0  0  0  0  0  0
    0.7469   -3.9358    0.0000 C   0  0  0  0  0  0  0  0  0  0  0  0
    0.7181   -4.7603    0.0000 N   0  0  0  0  0  0  0  0  0  0  0  0
    1.3682   -5.2682    0.0000 C   0  0  0  0  0  0  0  0  0  0  0  0
    1.0861   -6.0434    0.0000 N   0  0  0  0  0  0  0  0  0  0  0  0
    0.2616   -6.0146    0.0000 C   0  0  0  0  0  0  0  0  0  0  0  0
   -0.2464   -6.6647    0.0000 C   0  0  0  0  0  0  0  0  0  0  0  0
    0.0342   -5.2216    0.0000 N   0  0  0  0  0  0  0  0  0  0  0  0
    0.0473   -3.4986    0.0000 C   0  0  0  0  0  0  0  0  0  0  0  0
    0.0761   -2.6741    0.0000 C   0  0  0  0  0  0  0  0  0  0  0  0
   -0.6236   -2.2369    0.0000 Cl  0  0  0  0  0  0  0  0  0  0  0  0
   -0.6545   -0.3154    0.0000 C   0  0  0  0  0  0  0  0  0  0  0  0
   -0.9636   -1.0803    0.0000 C   0  0  0  0  0  0  0  0  0  0  0  0
   -1.7806   -1.1952    0.0000 C   0  0  0  0  0  0  0  0  0  0  0  0
   -2.2885   -0.5450    0.0000 C   0  0  0  0  0  0  0  0  0  0  0  0
   -1.9794    0.2199    0.0000 C   0  0  0  0  0  0  0  0  0  0  0  0
   -1.1625    0.3347    0.0000 C   0  0  0  0  0  0  0  0  0  0  0  0
   -0.0925    0.5840    0.0000 C   0  0  0  0  0  0  0  0  0  0  0  0
    0.4595    1.1971    0.0000 C   0  0  0  0  0  0  0  0  0  0  0  0
  1  2  1  0  0  0  0
  2  3  4  0  0  0  0
  3  4  4  0  0  0  0
  4  5  4  0  0  0  0
  5  6  4  0  0  0  0
  6  7  4  0  0  0  0
  2  7  4  0  0  0  0
  6  8  4  0  0  0  0
  8  9  1  0  0  0  0
  9 10  1  0  0  0  0
 10 11  1  0  0  0  0
 11 12  2  0  0  0  0
 11 13  1  0  0  0  0
  8 14  4  0  0  0  0
 14 15  4  0  0  0  0
  5 15  4  0  0  0  0
 15 16  1  0  0  0  0
 16 17  1  0  0  0  0
 17 18  1  6  0  0  0
 18 19  1  0  0  0  0
 19 20  2  0  0  0  0
 19 21  1  0  0  0  0
 21 22  4  0  0  0  0
 22 23  4  0  0  0  0
 23 24  4  0  0  0  0
 24 25  1  0  0  0  0
 25 26  4  0  0  0  0
 26 27  4  0  0  0  0
 27 28  4  0  0  0  0
 28 29  1  0  0  0  0
 28 30  4  0  0  0  0
 25 30  4  0  0  0  0
 24 31  4  0  0  0  0
 31 32  4  0  0  0  0
 21 32  4  0  0  0  0
 32 33  1  0  0  0  0
 17 34  1  1  0  0  0
 34 35  4  0  0  0  0
 35 36  4  0  0  0  0
 36 37  4  0  0  0  0
 37 38  4  0  0  0  0
 38 39  4  0  0  0  0
 34 39  4  0  0  0  0
 17 40  1  0  0  0  0
 40 41  1  0  0  0  0
 14 41  1  0  0  0  0
M  END
>  <CdId>
358943

>  <Mol Weight>
568.065

>  <Formula>
C32H30ClN5O3

>  <cmpd_chemblid>
CHEMBL3628835

>  <std_type>
Ki

>  <std_value>
2.7

>  <std_unit>
nM

>  <target_id>
CHEMBL2016

>  <target_name>
Coagulation factor IX

>  <organism>
Homo sapiens

>  <target_type>
SINGLE PROTEIN

$$$$

  Mrv0541 08052111042D          

 41 46  0  0  1  0            999 V2000
    3.9849    3.9849    0.0000 C   0  0  0  0  0  0  0  0  0  0  0  0
    4.3974    3.2704    0.0000 C   0  0  2  0  0  0  0  0  0  0  0  0
    5.2224    3.2704    0.0000 C   0  0  0  0  0  0  0  0  0  0  0  0
    5.6349    2.5559    0.0000 C   0  0  0  0  0  0  0  0  0  0  0  0
    6.4599    2.5559    0.0000 C   0  0  0  0  0  0  0  0  0  0  0  0
    6.8724    1.8414    0.0000 C   0  0  2  0  0  0  0  0  0  0  0  0
    7.6974    1.8414    0.0000 N   0  0  0  0  0  0  0  0  0  0  0  0
    8.1099    2.5559    0.0000 C   0  0  0  0  0  0  0  0  0  0  0  0
    8.9349    2.5559    0.0000 C   0  0  0  0  0  0  0  0  0  0  0  0
    9.3474    1.8414    0.0000 C   0  0  0  0  0  0  0  0  0  0  0  0
   10.1724    1.8414    0.0000 C   0  0  0  0  0  0  0  0  0  0  0  0
   10.5849    2.5559    0.0000 C   0  0  0  0  0  0  0  0  0  0  0  0
   10.1724    3.2704    0.0000 N   0  0  0  0  0  0  0  0  0  0  0  0
    9.3519    3.3566    0.0000 C   0  0  0  0  0  0  0  0  0  0  0  0
    9.1803    4.1636    0.0000 N   0  0  0  0  0  0  0  0  0  0  0  0
    9.8948    4.5761    0.0000 N   0  0  0  0  0  0  0  0  0  0  0  0
   10.5079    4.0241    0.0000 N   0  0  0  0  0  0  0  0  0  0  0  0
   11.4099    2.5559    0.0000 C   0  0  0  0  0  0  0  0  0  0  0  0
   11.8224    1.8414    0.0000 C   0  0  0  0  0  0  0  0  0  0  0  0
   11.4099    1.1270    0.0000 C   0  0  0  0  0  0  0  0  0  0  0  0
   11.8224    0.4125    0.0000 Cl  0  0  0  0  0  0  0  0  0  0  0  0
   10.5849    1.1270    0.0000 C   0  0  0  0  0  0  0  0  0  0  0  0
   10.1724    0.4125    0.0000 F   0  0  0  0  0  0  0  0  0  0  0  0
    8.9349    1.1270    0.0000 C   0  0  0  0  0  0  0  0  0  0  0  0
    8.1099    1.1270    0.0000 C   0  0  0  0  0  0  0  0  0  0  0  0
    7.6974    0.4125    0.0000 O   0  0  0  0  0  0  0  0  0  0  0  0
    6.4599    1.1270    0.0000 C   0  0  0  0  0  0  0  0  0  0  0  0
    5.6349    1.1270    0.0000 C   0  0  0  0  0  0  0  0  0  0  0  0
    5.2224    0.4125    0.0000 C   0  0  0  0  0  0  0  0  0  0  0  0
    5.6349   -0.3020    0.0000 C   0  0  0  0  0  0  0  0  0  0  0  0
    6.4599   -0.3020    0.0000 C   0  0  0  0  0  0  0  0  0  0  0  0
    6.8724    0.4125    0.0000 N   0  0  0  0  0  0  0  0  0  0  0  0
    4.3974    0.4125    0.0000 C   0  0  0  0  0  0  0  0  0  0  0  0
    3.9849   -0.3020    0.0000 C   0  0  0  0  0  0  0  0  0  0  0  0
    3.1599   -0.3020    0.0000 C   0  0  0  0  0  0  0  0  0  0  0  0
    2.7474    0.4125    0.0000 C   0  0  0  0  0  0  0  0  0  0  0  0
    3.1599    1.1270    0.0000 C   0  0  0  0  0  0  0  0  0  0  0  0
    3.9849    1.1270    0.0000 C   0  0  0  0  0  0  0  0  0  0  0  0
    4.3974    1.8414    0.0000 N   0  0  0  0  0  0  0  0  0  0  0  0
    3.9849    2.5559    0.0000 C   0  0  0  0  0  0  0  0  0  0  0  0
    3.1599    2.5559    0.0000 O   0  0  0  0  0  0  0  0  0  0  0  0
  2  1  1  6  0  0  0
  2  3  1  0  0  0  0
  3  4  1  0  0  0  0
  4  5  1  0  0  0  0
  5  6  1  0  0  0  0
  6  7  1  6  0  0  0
  7  8  1  0  0  0  0
  8  9  1  0  0  0  0
  9 10  1  0  0  0  0
 10 11  1  0  0  0  0
 11 12  4  0  0  0  0
 12 13  1  0  0  0  0
 13 14  4  0  0  0  0
 14 15  4  0  0  0  0
 15 16  4  0  0  0  0
 16 17  4  0  0  0  0
 13 17  4  0  0  0  0
 12 18  4  0  0  0  0
 18 19  4  0  0  0  0
 19 20  4  0  0  0  0
 20 21  1  0  0  0  0
 20 22  4  0  0  0  0
 11 22  4  0  0  0  0
 22 23  1  0  0  0  0
 10 24  2  0  0  0  0
 24 25  1  0  0  0  0
  7 25  1  0  0  0  0
 25 26  2  0  0  0  0
  6 27  1  0  0  0  0
 27 28  4  0  0  0  0
 28 29  4  0  0  0  0
 29 30  4  0  0  0  0
 30 31  4  0  0  0  0
 31 32  4  0  0  0  0
 27 32  4  0  0  0  0
 29 33  1  0  0  0  0
 33 34  4  0  0  0  0
 34 35  4  0  0  0  0
 35 36  4  0  0  0  0
 36 37  4  0  0  0  0
 37 38  4  0  0  0  0
 33 38  4  0  0  0  0
 38 39  1  0  0  0  0
 39 40  1  0  0  0  0
  2 40  1  0  0  0  0
 40 41  2  0  0  0  0
M  END
>  <CdId>
358949

>  <Mol Weight>
572.032

>  <Formula>
C30H27ClFN7O2

>  <cmpd_chemblid>
CHEMBL4112773

>  <std_type>
Ki

>  <std_value>
0.05

>  <std_unit>
nM

>  <target_id>
CHEMBL2016

>  <target_name>
Coagulation factor IX

>  <organism>
Homo sapiens

>  <target_type>
SINGLE PROTEIN

$$$$

  Mrv0541 08052111042D          

 39 42  0  0  1  0            999 V2000
   -1.4289    2.4750    0.0000 C   0  0  0  0  0  0  0  0  0  0  0  0
   -0.7145    2.0625    0.0000 O   0  0  0  0  0  0  0  0  0  0  0  0
   -0.7145    1.2375    0.0000 C   0  0  0  0  0  0  0  0  0  0  0  0
    0.0000    0.8250    0.0000 C   0  0  0  0  0  0  0  0  0  0  0  0
    0.0000    0.0000    0.0000 O   0  0  0  0  0  0  0  0  0  0  0  0
    0.7145   -0.4125    0.0000 C   0  0  0  0  0  0  0  0  0  0  0  0
    1.4289    0.0000    0.0000 C   0  0  0  0  0  0  0  0  0  0  0  0
    2.1434   -0.4125    0.0000 C   0  0  0  0  0  0  0  0  0  0  0  0
    2.8579    0.0000    0.0000 C   0  0  0  0  0  0  0  0  0  0  0  0
    2.8579    0.8250    0.0000 N   0  0  0  0  0  0  0  0  0  0  0  0
    3.5724   -0.4125    0.0000 N   0  0  0  0  0  0  0  0  0  0  0  0
    3.5724   -1.2375    0.0000 C   0  0  0  0  0  0  0  0  0  0  0  0
    2.8579   -1.6500    0.0000 C   0  0  0  0  0  0  0  0  0  0  0  0
    2.1434   -1.2375    0.0000 C   0  0  0  0  0  0  0  0  0  0  0  0
    1.4289   -1.6500    0.0000 C   0  0  0  0  0  0  0  0  0  0  0  0
    0.7145   -1.2375    0.0000 C   0  0  0  0  0  0  0  0  0  0  0  0
    0.0000   -1.6500    0.0000 C   0  0  0  0  0  0  0  0  0  0  0  0
    0.0000   -2.4750    0.0000 C   0  0  2  0  0  0  0  0  0  0  0  0
   -0.7145   -2.8875    0.0000 C   0  0  0  0  0  0  0  0  0  0  0  0
   -0.7145   -3.7125    0.0000 O   0  0  0  0  0  0  0  0  0  0  0  0
   -1.4289   -2.4750    0.0000 O   0  0  0  0  0  0  0  0  0  0  0  0
    0.7145   -2.8875    0.0000 N   0  0  0  0  0  0  0  0  0  0  0  0
    1.4681   -2.5519    0.0000 C   0  0  0  0  0  0  0  0  0  0  0  0
    2.0202   -3.1650    0.0000 C   0  0  0  0  0  0  0  0  0  0  0  0
    1.6077   -3.8795    0.0000 C   0  0  2  0  0  0  0  0  0  0  0  0
    1.9432   -4.6332    0.0000 N   0  0  0  0  0  0  0  0  0  0  0  0
    2.7637   -4.7194    0.0000 S   0  0  0  0  0  0  0  0  0  0  0  0
    2.6775   -5.5399    0.0000 O   0  0  0  0  0  0  0  0  0  0  0  0
    2.8500   -3.8989    0.0000 O   0  0  0  0  0  0  0  0  0  0  0  0
    3.5842   -4.8057    0.0000 C   0  0  0  0  0  0  0  0  0  0  0  0
    4.1362   -4.1926    0.0000 C   0  0  0  0  0  0  0  0  0  0  0  0
    4.8899   -4.5281    0.0000 N   0  0  0  0  0  0  0  0  0  0  0  0
    4.8037   -5.3486    0.0000 C   0  0  0  0  0  0  0  0  0  0  0  0
    5.4168   -5.9006    0.0000 N   0  0  0  0  0  0  0  0  0  0  0  0
    6.2014   -5.6457    0.0000 C   0  0  0  0  0  0  0  0  0  0  0  0
    5.2452   -6.7076    0.0000 C   0  0  0  0  0  0  0  0  0  0  0  0
    3.9967   -5.5201    0.0000 S   0  0  0  0  0  0  0  0  0  0  0  0
    0.8007   -3.7080    0.0000 C   0  0  0  0  0  0  0  0  0  0  0  0
    0.1876   -4.2600    0.0000 O   0  0  0  0  0  0  0  0  0  0  0  0
  1  2  1  0  0  0  0
  2  3  1  0  0  0  0
  3  4  1  0  0  0  0
  4  5  1  0  0  0  0
  5  6  1  0  0  0  0
  6  7  4  0  0  0  0
  7  8  4  0  0  0  0
  8  9  4  0  0  0  0
  9 10  1  0  0  0  0
  9 11  4  0  0  0  0
 11 12  4  0  0  0  0
 12 13  4  0  0  0  0
 13 14  4  0  0  0  0
  8 14  4  0  0  0  0
 14 15  4  0  0  0  0
 15 16  4  0  0  0  0
  6 16  4  0  0  0  0
 16 17  1  0  0  0  0
 17 18  1  0  0  0  0
 18 19  1  0  0  0  0
 19 20  2  0  0  0  0
 19 21  1  0  0  0  0
 18 22  1  1  0  0  0
 22 23  1  0  0  0  0
 23 24  1  0  0  0  0
 24 25  1  0  0  0  0
 25 26  1  6  0  0  0
 26 27  1  0  0  0  0
 27 28  2  0  0  0  0
 27 29  2  0  0  0  0
 27 30  1  0  0  0  0
 30 31  4  0  0  0  0
 31 32  4  0  0  0  0
 32 33  4  0  0  0  0
 33 34  1  0  0  0  0
 34 35  1  0  0  0  0
 34 36  1  0  0  0  0
 33 37  4  0  0  0  0
 30 37  4  0  0  0  0
 25 38  1  0  0  0  0
 22 38  1  0  0  0  0
 38 39  2  0  0  0  0
M  END
>  <CdId>
358950

>  <Mol Weight>
578.661

>  <Formula>
C24H30N6O7S2

>  <cmpd_chemblid>
CHEMBL3947338

>  <std_type>
Ki

>  <std_value>
85.0

>  <std_unit>
nM

>  <target_id>
CHEMBL2016

>  <target_name>
Coagulation factor IX

>  <organism>
Homo sapiens

>  <target_type>
SINGLE PROTEIN

$$$$

  Mrv0541 08052111042D          

 38 41  0  0  1  0            999 V2000
   -1.1270   -0.5230    0.0000 C   0  0  0  0  0  0  0  0  0  0  0  0
   -0.7145   -1.2375    0.0000 C   0  0  0  0  0  0  0  0  0  0  0  0
    0.1105   -1.2375    0.0000 O   0  0  0  0  0  0  0  0  0  0  0  0
    0.5230   -1.9520    0.0000 C   0  0  0  0  0  0  0  0  0  0  0  0
    0.1105   -2.6664    0.0000 O   0  0  0  0  0  0  0  0  0  0  0  0
    1.3480   -1.9520    0.0000 C   0  0  1  0  0  0  0  0  0  0  0  0
    1.7605   -1.2375    0.0000 C   0  0  0  0  0  0  0  0  0  0  0  0
    1.3480   -0.5230    0.0000 C   0  0  0  0  0  0  0  0  0  0  0  0
    0.5230   -0.5230    0.0000 C   0  0  0  0  0  0  0  0  0  0  0  0
    0.1105    0.1914    0.0000 C   0  0  0  0  0  0  0  0  0  0  0  0
   -0.7145    0.1914    0.0000 C   0  0  0  0  0  0  0  0  0  0  0  0
   -1.1270    0.9059    0.0000 C   0  0  0  0  0  0  0  0  0  0  0  0
   -0.7145    1.6204    0.0000 N   0  0  0  0  0  0  0  0  0  0  0  0
    0.1105    1.6204    0.0000 C   0  0  0  0  0  0  0  0  0  0  0  0
    0.5230    2.3349    0.0000 N   0  0  0  0  0  0  0  0  0  0  0  0
    0.5230    0.9059    0.0000 C   0  0  0  0  0  0  0  0  0  0  0  0
    1.3480    0.9059    0.0000 C   0  0  0  0  0  0  0  0  0  0  0  0
    1.7605    0.1914    0.0000 C   0  0  0  0  0  0  0  0  0  0  0  0
    2.5855    0.1914    0.0000 O   0  0  0  0  0  0  0  0  0  0  0  0
    2.9980   -0.5230    0.0000 C   0  0  0  0  0  0  0  0  0  0  0  0
    1.7605   -2.6664    0.0000 N   0  0  0  0  0  0  0  0  0  0  0  0
    2.5810   -2.7527    0.0000 C   0  0  0  0  0  0  0  0  0  0  0  0
    2.7525   -3.5596    0.0000 C   0  0  0  0  0  0  0  0  0  0  0  0
    2.0381   -3.9721    0.0000 C   0  0  2  0  0  0  0  0  0  0  0  0
    1.9518   -4.7926    0.0000 N   0  0  0  0  0  0  0  0  0  0  0  0
    2.6193   -5.2776    0.0000 S   0  0  0  0  0  0  0  0  0  0  0  0
    2.1343   -5.9450    0.0000 O   0  0  0  0  0  0  0  0  0  0  0  0
    3.1042   -4.6101    0.0000 O   0  0  0  0  0  0  0  0  0  0  0  0
    3.2867   -5.7625    0.0000 C   0  0  0  0  0  0  0  0  0  0  0  0
    4.0713   -5.5075    0.0000 C   0  0  0  0  0  0  0  0  0  0  0  0
    4.5563   -6.1750    0.0000 N   0  0  0  0  0  0  0  0  0  0  0  0
    4.0713   -6.8424    0.0000 C   0  0  0  0  0  0  0  0  0  0  0  0
    4.3263   -7.6270    0.0000 N   0  0  0  0  0  0  0  0  0  0  0  0
    5.1332   -7.7986    0.0000 C   0  0  0  0  0  0  0  0  0  0  0  0
    3.7742   -8.2401    0.0000 C   0  0  0  0  0  0  0  0  0  0  0  0
    3.2867   -6.5875    0.0000 S   0  0  0  0  0  0  0  0  0  0  0  0
    1.4250   -3.4201    0.0000 C   0  0  0  0  0  0  0  0  0  0  0  0
    0.6180   -3.5916    0.0000 O   0  0  0  0  0  0  0  0  0  0  0  0
  1  2  1  0  0  0  0
  2  3  1  0  0  0  0
  3  4  1  0  0  0  0
  4  5  2  0  0  0  0
  4  6  1  0  0  0  0
  6  7  1  0  0  0  0
  7  8  1  0  0  0  0
  8  9  4  0  0  0  0
  9 10  4  0  0  0  0
 10 11  4  0  0  0  0
 11 12  4  0  0  0  0
 12 13  4  0  0  0  0
 13 14  4  0  0  0  0
 14 15  1  0  0  0  0
 14 16  4  0  0  0  0
 10 16  4  0  0  0  0
 16 17  4  0  0  0  0
 17 18  4  0  0  0  0
  8 18  4  0  0  0  0
 18 19  1  0  0  0  0
 19 20  1  0  0  0  0
  6 21  1  1  0  0  0
 21 22  1  0  0  0  0
 22 23  1  0  0  0  0
 23 24  1  0  0  0  0
 24 25  1  6  0  0  0
 25 26  1  0  0  0  0
 26 27  2  0  0  0  0
 26 28  2  0  0  0  0
 26 29  1  0  0  0  0
 29 30  4  0  0  0  0
 30 31  4  0  0  0  0
 31 32  4  0  0  0  0
 32 33  1  0  0  0  0
 33 34  1  0  0  0  0
 33 35  1  0  0  0  0
 32 36  4  0  0  0  0
 29 36  4  0  0  0  0
 24 37  1  0  0  0  0
 21 37  1  0  0  0  0
 37 38  2  0  0  0  0
M  END
>  <CdId>
358951

>  <Mol Weight>
562.662

>  <Formula>
C24H30N6O6S2

>  <cmpd_chemblid>
CHEMBL3984182

>  <std_type>
Ki

>  <std_value>
800.0

>  <std_unit>
nM

>  <target_id>
CHEMBL2016

>  <target_name>
Coagulation factor IX

>  <organism>
Homo sapiens

>  <target_type>
SINGLE PROTEIN

$$$$

  Mrv0541 08052111042D          

 41 45  0  0  0  0            999 V2000
    4.2010   -5.1401    0.0000 N   0  0  0  0  0  0  0  0  0  0  0  0
    3.3760   -5.1401    0.0000 C   0  0  0  0  0  0  0  0  0  0  0  0
    2.9635   -4.4256    0.0000 N   0  0  0  0  0  0  0  0  0  0  0  0
    2.9635   -5.8546    0.0000 C   0  0  0  0  0  0  0  0  0  0  0  0
    3.3760   -6.5690    0.0000 C   0  0  0  0  0  0  0  0  0  0  0  0
    2.9635   -7.2835    0.0000 C   0  0  0  0  0  0  0  0  0  0  0  0
    2.1385   -7.2835    0.0000 C   0  0  0  0  0  0  0  0  0  0  0  0
    1.7260   -6.5690    0.0000 C   0  0  0  0  0  0  0  0  0  0  0  0
    0.9010   -6.5690    0.0000 N   0  0  0  0  0  0  0  0  0  0  0  0
    0.4161   -7.2365    0.0000 N   0  0  0  0  0  0  0  0  0  0  0  0
   -0.3686   -6.9815    0.0000 C   0  0  0  0  0  0  0  0  0  0  0  0
   -1.0360   -7.4664    0.0000 C   0  0  0  0  0  0  0  0  0  0  0  0
   -1.7034   -7.9514    0.0000 F   0  0  0  0  0  0  0  0  0  0  0  0
   -1.5209   -6.7990    0.0000 F   0  0  0  0  0  0  0  0  0  0  0  0
   -0.5511   -8.1339    0.0000 F   0  0  0  0  0  0  0  0  0  0  0  0
   -0.3686   -6.1565    0.0000 C   0  0  0  0  0  0  0  0  0  0  0  0
    0.4161   -5.9016    0.0000 C   0  0  0  0  0  0  0  0  0  0  0  0
    0.6710   -5.1170    0.0000 C   0  0  0  0  0  0  0  0  0  0  0  0
    1.4780   -4.9454    0.0000 O   0  0  0  0  0  0  0  0  0  0  0  0
    0.1190   -4.5039    0.0000 N   0  0  0  0  0  0  0  0  0  0  0  0
    0.3739   -3.7192    0.0000 C   0  0  0  0  0  0  0  0  0  0  0  0
   -0.1781   -3.1062    0.0000 C   0  0  0  0  0  0  0  0  0  0  0  0
    0.0768   -2.3215    0.0000 C   0  0  0  0  0  0  0  0  0  0  0  0
    0.8838   -2.1500    0.0000 C   0  0  0  0  0  0  0  0  0  0  0  0
    1.1387   -1.3654    0.0000 N   0  0  0  0  0  0  0  0  0  0  0  0
    0.6538   -0.6979    0.0000 C   0  0  0  0  0  0  0  0  0  0  0  0
    1.1387   -0.0305    0.0000 N   0  0  0  0  0  0  0  0  0  0  0  0
    1.9233   -0.2854    0.0000 C   0  0  0  0  0  0  0  0  0  0  0  0
    2.6378    0.1271    0.0000 C   0  0  0  0  0  0  0  0  0  0  0  0
    3.3523   -0.2854    0.0000 C   0  0  0  0  0  0  0  0  0  0  0  0
    4.0668    0.1271    0.0000 C   0  0  0  0  0  0  0  0  0  0  0  0
    4.7812    0.5396    0.0000 F   0  0  0  0  0  0  0  0  0  0  0  0
    4.4793   -0.5874    0.0000 F   0  0  0  0  0  0  0  0  0  0  0  0
    3.6543    0.8415    0.0000 F   0  0  0  0  0  0  0  0  0  0  0  0
    3.3523   -1.1104    0.0000 C   0  0  0  0  0  0  0  0  0  0  0  0
    2.6378   -1.5229    0.0000 C   0  0  0  0  0  0  0  0  0  0  0  0
    1.9233   -1.1104    0.0000 C   0  0  0  0  0  0  0  0  0  0  0  0
    1.4358   -2.7631    0.0000 C   0  0  0  0  0  0  0  0  0  0  0  0
    1.1809   -3.5477    0.0000 C   0  0  0  0  0  0  0  0  0  0  0  0
    1.7329   -4.1608    0.0000 F   0  0  0  0  0  0  0  0  0  0  0  0
    2.1385   -5.8546    0.0000 C   0  0  0  0  0  0  0  0  0  0  0  0
  1  2  2  0  0  0  0
  2  3  1  0  0  0  0
  2  4  1  0  0  0  0
  4  5  4  0  0  0  0
  5  6  4  0  0  0  0
  6  7  4  0  0  0  0
  7  8  4  0  0  0  0
  8  9  1  0  0  0  0
  9 10  4  0  0  0  0
 10 11  4  0  0  0  0
 11 12  1  0  0  0  0
 12 13  1  0  0  0  0
 12 14  1  0  0  0  0
 12 15  1  0  0  0  0
 11 16  4  0  0  0  0
 16 17  4  0  0  0  0
  9 17  4  0  0  0  0
 17 18  1  0  0  0  0
 18 19  2  0  0  0  0
 18 20  1  0  0  0  0
 20 21  1  0  0  0  0
 21 22  4  0  0  0  0
 22 23  4  0  0  0  0
 23 24  4  0  0  0  0
 24 25  1  0  0  0  0
 25 26  4  0  0  0  0
 26 27  4  0  0  0  0
 27 28  4  0  0  0  0
 28 29  4  0  0  0  0
 29 30  4  0  0  0  0
 30 31  1  0  0  0  0
 31 32  1  0  0  0  0
 31 33  1  0  0  0  0
 31 34  1  0  0  0  0
 30 35  4  0  0  0  0
 35 36  4  0  0  0  0
 36 37  4  0  0  0  0
 28 37  4  0  0  0  0
 25 37  4  0  0  0  0
 24 38  4  0  0  0  0
 38 39  4  0  0  0  0
 21 39  4  0  0  0  0
 39 40  1  0  0  0  0
  8 41  4  0  0  0  0
  4 41  4  0  0  0  0
M  END
>  <CdId>
358953

>  <Mol Weight>
575.4404

>  <Formula>
C26H16F7N7O

>  <cmpd_chemblid>
CHEMBL184427

>  <std_type>
Ki

>  <std_value>
6.4

>  <std_unit>
nM

>  <target_id>
CHEMBL2016

>  <target_name>
Coagulation factor IX

>  <organism>
Homo sapiens

>  <target_type>
SINGLE PROTEIN

$$$$

  Mrv0541 08052111042D          

 47 52  0  0  1  0            999 V2000
    8.6329   -2.2539    0.0000 C   0  0  0  0  0  0  0  0  0  0  0  0
    8.2204   -1.5395    0.0000 O   0  0  0  0  0  0  0  0  0  0  0  0
    7.3954   -1.5395    0.0000 C   0  0  0  0  0  0  0  0  0  0  0  0
    6.9829   -2.2539    0.0000 O   0  0  0  0  0  0  0  0  0  0  0  0
    6.9829   -0.8250    0.0000 N   0  0  0  0  0  0  0  0  0  0  0  0
    6.1579   -0.8250    0.0000 C   0  0  0  0  0  0  0  0  0  0  0  0
    5.7454   -0.1105    0.0000 C   0  0  0  0  0  0  0  0  0  0  0  0
    4.9204   -0.1105    0.0000 C   0  0  0  0  0  0  0  0  0  0  0  0
    4.5079   -0.8250    0.0000 C   0  0  0  0  0  0  0  0  0  0  0  0
    4.9204   -1.5395    0.0000 C   0  0  0  0  0  0  0  0  0  0  0  0
    5.7454   -1.5395    0.0000 C   0  0  0  0  0  0  0  0  0  0  0  0
    4.5079   -2.2539    0.0000 N   0  0  0  0  0  0  0  0  0  0  0  0
    4.9204   -2.9684    0.0000 C   0  0  0  0  0  0  0  0  0  0  0  0
    5.7454   -2.9684    0.0000 O   0  0  0  0  0  0  0  0  0  0  0  0
    4.5079   -3.6829    0.0000 C   0  0  2  0  0  0  0  0  0  0  0  0
    4.9204   -4.3974    0.0000 C   0  0  0  0  0  0  0  0  0  0  0  0
    3.6829   -3.6829    0.0000 C   0  0  0  0  0  0  0  0  0  0  0  0
    3.2704   -2.9684    0.0000 C   0  0  0  0  0  0  0  0  0  0  0  0
    2.4454   -2.9684    0.0000 C   0  0  0  0  0  0  0  0  0  0  0  0
    2.0329   -2.2539    0.0000 C   0  0  2  0  0  0  0  0  0  0  0  0
    1.2079   -2.2539    0.0000 N   0  0  0  0  0  0  0  0  0  0  0  0
    0.7954   -2.9684    0.0000 C   0  0  0  0  0  0  0  0  0  0  0  0
   -0.0296   -2.9684    0.0000 C   0  0  0  0  0  0  0  0  0  0  0  0
   -0.4421   -2.2539    0.0000 C   0  0  0  0  0  0  0  0  0  0  0  0
   -1.2671   -2.2539    0.0000 C   0  0  0  0  0  0  0  0  0  0  0  0
   -1.6796   -2.9684    0.0000 C   0  0  0  0  0  0  0  0  0  0  0  0
   -1.2671   -3.6829    0.0000 C   0  0  0  0  0  0  0  0  0  0  0  0
   -0.8546   -4.3974    0.0000 N   0  0  0  0  0  0  0  0  0  0  0  0
   -2.5046   -2.9684    0.0000 C   0  0  0  0  0  0  0  0  0  0  0  0
   -2.9171   -2.2539    0.0000 C   0  0  0  0  0  0  0  0  0  0  0  0
   -2.5046   -1.5395    0.0000 C   0  0  0  0  0  0  0  0  0  0  0  0
   -2.7596   -0.7548    0.0000 C   0  0  0  0  0  0  0  0  0  0  0  0
   -3.5442   -0.4999    0.0000 N   0  0  0  0  0  0  0  0  0  0  0  0
   -2.0921   -0.2699    0.0000 N   0  0  0  0  0  0  0  0  0  0  0  0
   -1.4247   -0.7548    0.0000 N   0  0  0  0  0  0  0  0  0  0  0  0
   -1.6796   -1.5395    0.0000 C   0  0  0  0  0  0  0  0  0  0  0  0
   -0.0296   -1.5395    0.0000 C   0  0  0  0  0  0  0  0  0  0  0  0
    0.7954   -1.5395    0.0000 C   0  0  0  0  0  0  0  0  0  0  0  0
    1.2079   -0.8250    0.0000 O   0  0  0  0  0  0  0  0  0  0  0  0
    2.4454   -1.5395    0.0000 C   0  0  0  0  0  0  0  0  0  0  0  0
    3.2704   -1.5395    0.0000 C   0  0  0  0  0  0  0  0  0  0  0  0
    3.6829   -0.8250    0.0000 C   0  0  0  0  0  0  0  0  0  0  0  0
    3.2704   -0.1105    0.0000 C   0  0  0  0  0  0  0  0  0  0  0  0
    2.4454   -0.1105    0.0000 C   0  0  0  0  0  0  0  0  0  0  0  0
    2.0329    0.6039    0.0000 O   0  0  0  0  0  0  0  0  0  0  0  0
    1.2079    0.6039    0.0000 C   0  0  0  0  0  0  0  0  0  0  0  0
    2.0329   -0.8250    0.0000 N   0  0  0  0  0  0  0  0  0  0  0  0
  1  2  1  0  0  0  0
  2  3  1  0  0  0  0
  3  4  2  0  0  0  0
  3  5  1  0  0  0  0
  5  6  1  0  0  0  0
  6  7  4  0  0  0  0
  7  8  4  0  0  0  0
  8  9  4  0  0  0  0
  9 10  4  0  0  0  0
 10 11  4  0  0  0  0
  6 11  4  0  0  0  0
 10 12  1  0  0  0  0
 12 13  1  0  0  0  0
 13 14  2  0  0  0  0
 13 15  1  0  0  0  0
 15 16  1  6  0  0  0
 15 17  1  0  0  0  0
 17 18  1  0  0  0  0
 18 19  1  0  0  0  0
 19 20  1  0  0  0  0
 20 21  1  6  0  0  0
 21 22  1  0  0  0  0
 22 23  1  0  0  0  0
 23 24  1  0  0  0  0
 24 25  1  0  0  0  0
 25 26  4  0  0  0  0
 26 27  1  0  0  0  0
 27 28  3  0  0  0  0
 26 29  4  0  0  0  0
 29 30  4  0  0  0  0
 30 31  4  0  0  0  0
 31 32  4  0  0  0  0
 32 33  1  0  0  0  0
 32 34  4  0  0  0  0
 34 35  4  0  0  0  0
 35 36  4  0  0  0  0
 25 36  4  0  0  0  0
 31 36  4  0  0  0  0
 24 37  2  0  0  0  0
 37 38  1  0  0  0  0
 21 38  1  0  0  0  0
 38 39  2  0  0  0  0
 20 40  1  0  0  0  0
 40 41  4  0  0  0  0
 41 42  4  0  0  0  0
  9 42  1  0  0  0  0
 42 43  4  0  0  0  0
 43 44  4  0  0  0  0
 44 45  1  0  0  0  0
 45 46  1  0  0  0  0
 44 47  4  0  0  0  0
 40 47  4  0  0  0  0
M  STY  1   1 DAT
M  SAL   1  1  35
M  SDT   1 MRV_IMPLICIT_H                                        
M  SDD   1     0.0000    0.0000    DR    ALL  0       0  
M  SED   1 IMPL_H1
M  END
>  <CdId>
358954

>  <Mol Weight>
634.6844

>  <Formula>
C34H34N8O5

>  <cmpd_chemblid>
CHEMBL4107259

>  <std_type>
Ki

>  <std_value>
457.4

>  <std_unit>
nM

>  <target_id>
CHEMBL2016

>  <target_name>
Coagulation factor IX

>  <organism>
Homo sapiens

>  <target_type>
SINGLE PROTEIN

$$$$

  Mrv0541 08052111042D          

 25 28  0  0  0  0            999 V2000
    4.7812    1.9354    0.0000 N   0  0  0  0  0  0  0  0  0  0  0  0
    4.0668    2.3479    0.0000 C   0  0  0  0  0  0  0  0  0  0  0  0
    4.0668    3.1729    0.0000 N   0  0  0  0  0  0  0  0  0  0  0  0
    3.3523    1.9354    0.0000 C   0  0  0  0  0  0  0  0  0  0  0  0
    3.3523    1.1104    0.0000 C   0  0  0  0  0  0  0  0  0  0  0  0
    2.6378    0.6979    0.0000 C   0  0  0  0  0  0  0  0  0  0  0  0
    1.9233    1.1104    0.0000 C   0  0  0  0  0  0  0  0  0  0  0  0
    1.1387    0.8555    0.0000 N   0  0  0  0  0  0  0  0  0  0  0  0
    0.6538    1.5229    0.0000 C   0  0  0  0  0  0  0  0  0  0  0  0
   -0.1712    1.5229    0.0000 C   0  0  0  0  0  0  0  0  0  0  0  0
   -0.5837    0.8085    0.0000 C   0  0  0  0  0  0  0  0  0  0  0  0
   -1.4087    0.8085    0.0000 C   0  0  0  0  0  0  0  0  0  0  0  0
   -1.8212    1.5229    0.0000 C   0  0  0  0  0  0  0  0  0  0  0  0
   -1.4087    2.2374    0.0000 C   0  0  0  0  0  0  0  0  0  0  0  0
   -1.8212    2.9519    0.0000 C   0  0  0  0  0  0  0  0  0  0  0  0
   -2.6462    2.9519    0.0000 C   0  0  0  0  0  0  0  0  0  0  0  0
   -3.0587    3.6664    0.0000 C   0  0  0  0  0  0  0  0  0  0  0  0
   -2.6462    4.3808    0.0000 C   0  0  0  0  0  0  0  0  0  0  0  0
   -1.8212    4.3808    0.0000 C   0  0  0  0  0  0  0  0  0  0  0  0
   -1.4087    3.6664    0.0000 C   0  0  0  0  0  0  0  0  0  0  0  0
   -0.5837    2.2374    0.0000 C   0  0  0  0  0  0  0  0  0  0  0  0
   -0.1712    2.9519    0.0000 O   0  0  0  0  0  0  0  0  0  0  0  0
    1.1387    2.1904    0.0000 N   0  0  0  0  0  0  0  0  0  0  0  0
    1.9233    1.9354    0.0000 C   0  0  0  0  0  0  0  0  0  0  0  0
    2.6378    2.3479    0.0000 C   0  0  0  0  0  0  0  0  0  0  0  0
  1  2  2  0  0  0  0
  2  3  1  0  0  0  0
  2  4  1  0  0  0  0
  4  5  4  0  0  0  0
  5  6  4  0  0  0  0
  6  7  4  0  0  0  0
  7  8  4  0  0  0  0
  8  9  4  0  0  0  0
  9 10  1  0  0  0  0
 10 11  4  0  0  0  0
 11 12  4  0  0  0  0
 12 13  4  0  0  0  0
 13 14  4  0  0  0  0
 14 15  1  0  0  0  0
 15 16  4  0  0  0  0
 16 17  4  0  0  0  0
 17 18  4  0  0  0  0
 18 19  4  0  0  0  0
 19 20  4  0  0  0  0
 15 20  4  0  0  0  0
 14 21  4  0  0  0  0
 10 21  4  0  0  0  0
 21 22  1  0  0  0  0
  9 23  4  0  0  0  0
 23 24  4  0  0  0  0
  7 24  4  0  0  0  0
 24 25  4  0  0  0  0
  4 25  4  0  0  0  0
M  STY  1   1 DAT
M  SAL   1  1   8
M  SDT   1 MRV_IMPLICIT_H                                        
M  SDD   1     0.0000    0.0000    DR    ALL  0       0  
M  SED   1 IMPL_H1
M  END
>  <CdId>
358956

>  <Mol Weight>
328.3672

>  <Formula>
C20H16N4O

>  <cmpd_chemblid>
CHEMBL327715

>  <std_type>
Ki

>  <std_value>
99.0

>  <std_unit>
nM

>  <target_id>
CHEMBL2016

>  <target_name>
Coagulation factor IX

>  <organism>
Homo sapiens

>  <target_type>
SINGLE PROTEIN

$$$$

  Mrv0541 08052111042D          

 49 54  0  0  1  0            999 V2000
    3.9849    3.9849    0.0000 C   0  0  0  0  0  0  0  0  0  0  0  0
    4.3974    3.2704    0.0000 C   0  0  2  0  0  0  0  0  0  0  0  0
    5.2224    3.2704    0.0000 C   0  0  0  0  0  0  0  0  0  0  0  0
    5.6349    2.5559    0.0000 C   0  0  0  0  0  0  0  0  0  0  0  0
    6.4599    2.5559    0.0000 C   0  0  0  0  0  0  0  0  0  0  0  0
    6.8724    1.8414    0.0000 C   0  0  2  0  0  0  0  0  0  0  0  0
    7.6974    1.8414    0.0000 N   0  0  0  0  0  0  0  0  0  0  0  0
    8.1099    2.5559    0.0000 C   0  0  0  0  0  0  0  0  0  0  0  0
    8.9349    2.5559    0.0000 C   0  0  0  0  0  0  0  0  0  0  0  0
    9.3474    1.8414    0.0000 C   0  0  0  0  0  0  0  0  0  0  0  0
   10.1724    1.8414    0.0000 C   0  0  0  0  0  0  0  0  0  0  0  0
   10.5849    2.5559    0.0000 C   0  0  0  0  0  0  0  0  0  0  0  0
   10.1724    3.2704    0.0000 F   0  0  0  0  0  0  0  0  0  0  0  0
   11.4099    2.5559    0.0000 C   0  0  0  0  0  0  0  0  0  0  0  0
   11.8224    1.8414    0.0000 C   0  0  0  0  0  0  0  0  0  0  0  0
   11.4099    1.1270    0.0000 C   0  0  0  0  0  0  0  0  0  0  0  0
   11.8224    0.4125    0.0000 Cl  0  0  0  0  0  0  0  0  0  0  0  0
   10.5849    1.1270    0.0000 C   0  0  0  0  0  0  0  0  0  0  0  0
   10.1724    0.4125    0.0000 F   0  0  0  0  0  0  0  0  0  0  0  0
    8.9349    1.1270    0.0000 C   0  0  0  0  0  0  0  0  0  0  0  0
    8.1099    1.1270    0.0000 C   0  0  0  0  0  0  0  0  0  0  0  0
    7.6974    0.4125    0.0000 O   0  0  0  0  0  0  0  0  0  0  0  0
    6.4599    1.1270    0.0000 C   0  0  0  0  0  0  0  0  0  0  0  0
    5.6349    1.1270    0.0000 C   0  0  0  0  0  0  0  0  0  0  0  0
    5.2224    0.4125    0.0000 C   0  0  0  0  0  0  0  0  0  0  0  0
    5.6349   -0.3020    0.0000 C   0  0  0  0  0  0  0  0  0  0  0  0
    6.4599   -0.3020    0.0000 C   0  0  0  0  0  0  0  0  0  0  0  0
    6.8724    0.4125    0.0000 N   0  0  0  0  0  0  0  0  0  0  0  0
    4.3974    0.4125    0.0000 C   0  0  0  0  0  0  0  0  0  0  0  0
    3.9849   -0.3020    0.0000 C   0  0  0  0  0  0  0  0  0  0  0  0
    3.1599   -0.3020    0.0000 C   0  0  0  0  0  0  0  0  0  0  0  0
    2.7474    0.4125    0.0000 C   0  0  0  0  0  0  0  0  0  0  0  0
    1.9224    0.4125    0.0000 N   0  0  0  0  0  0  0  0  0  0  0  0
    1.5099    1.1270    0.0000 C   0  0  0  0  0  0  0  0  0  0  0  0
    0.6849    1.1270    0.0000 O   0  0  0  0  0  0  0  0  0  0  0  0
    0.2724    1.8414    0.0000 C   0  0  2  0  0  0  0  0  0  0  0  0
   -0.5526    1.8414    0.0000 C   0  0  0  0  0  0  0  0  0  0  0  0
   -0.9651    1.1270    0.0000 O   0  0  0  0  0  0  0  0  0  0  0  0
    0.6849    2.5559    0.0000 C   0  0  1  0  0  0  0  0  0  0  0  0
    0.2724    3.2704    0.0000 O   0  0  0  0  0  0  0  0  0  0  0  0
    1.5099    2.5559    0.0000 C   0  0  2  0  0  0  0  0  0  0  0  0
    1.9224    3.2704    0.0000 O   0  0  0  0  0  0  0  0  0  0  0  0
    1.9224    1.8414    0.0000 C   0  0  2  0  0  0  0  0  0  0  0  0
    2.7474    1.8414    0.0000 N   0  0  0  0  0  0  0  0  0  0  0  0
    3.1599    1.1270    0.0000 C   0  0  0  0  0  0  0  0  0  0  0  0
    3.9849    1.1270    0.0000 C   0  0  0  0  0  0  0  0  0  0  0  0
    4.3974    1.8414    0.0000 N   0  0  0  0  0  0  0  0  0  0  0  0
    3.9849    2.5559    0.0000 C   0  0  0  0  0  0  0  0  0  0  0  0
    3.1599    2.5559    0.0000 O   0  0  0  0  0  0  0  0  0  0  0  0
  2  1  1  6  0  0  0
  2  3  1  0  0  0  0
  3  4  1  0  0  0  0
  4  5  1  0  0  0  0
  5  6  1  0  0  0  0
  6  7  1  6  0  0  0
  7  8  1  0  0  0  0
  8  9  1  0  0  0  0
  9 10  1  0  0  0  0
 10 11  1  0  0  0  0
 11 12  4  0  0  0  0
 12 13  1  0  0  0  0
 12 14  4  0  0  0  0
 14 15  4  0  0  0  0
 15 16  4  0  0  0  0
 16 17  1  0  0  0  0
 16 18  4  0  0  0  0
 11 18  4  0  0  0  0
 18 19  1  0  0  0  0
 10 20  2  0  0  0  0
 20 21  1  0  0  0  0
  7 21  1  0  0  0  0
 21 22  2  0  0  0  0
  6 23  1  0  0  0  0
 23 24  4  0  0  0  0
 24 25  4  0  0  0  0
 25 26  4  0  0  0  0
 26 27  4  0  0  0  0
 27 28  4  0  0  0  0
 23 28  4  0  0  0  0
 25 29  1  0  0  0  0
 29 30  4  0  0  0  0
 30 31  4  0  0  0  0
 31 32  4  0  0  0  0
 32 33  1  0  0  0  0
 33 34  1  0  0  0  0
 34 35  1  0  0  0  0
 35 36  1  0  0  0  0
 36 37  1  6  0  0  0
 37 38  1  0  0  0  0
 36 39  1  0  0  0  0
 39 40  1  1  0  0  0
 39 41  1  0  0  0  0
 41 42  1  6  0  0  0
 41 43  1  0  0  0  0
 34 43  1  0  0  0  0
 43 44  1  6  0  0  0
 32 45  4  0  0  0  0
 45 46  4  0  0  0  0
 29 46  4  0  0  0  0
 46 47  1  0  0  0  0
 47 48  1  0  0  0  0
  2 48  1  0  0  0  0
 48 49  2  0  0  0  0
M  END
>  <CdId>
358957

>  <Mol Weight>
698.156

>  <Formula>
C35H38ClF2N5O6

>  <cmpd_chemblid>
CHEMBL4109821

>  <std_type>
Ki

>  <std_value>
3.61

>  <std_unit>
nM

>  <target_id>
CHEMBL2016

>  <target_name>
Coagulation factor IX

>  <organism>
Homo sapiens

>  <target_type>
SINGLE PROTEIN

$$$$

  Mrv0541 08052111042D          

 39 43  0  0  1  0            999 V2000
    3.9849    3.9849    0.0000 C   0  0  0  0  0  0  0  0  0  0  0  0
    4.3974    3.2704    0.0000 C   0  0  2  0  0  0  0  0  0  0  0  0
    5.2224    3.2704    0.0000 C   0  0  0  0  0  0  0  0  0  0  0  0
    5.6349    2.5559    0.0000 C   0  0  0  0  0  0  0  0  0  0  0  0
    6.4599    2.5559    0.0000 C   0  0  0  0  0  0  0  0  0  0  0  0
    6.8724    1.8414    0.0000 C   0  0  2  0  0  0  0  0  0  0  0  0
    7.6974    1.8414    0.0000 N   0  0  0  0  0  0  0  0  0  0  0  0
    8.1099    2.5559    0.0000 C   0  0  0  0  0  0  0  0  0  0  0  0
    8.9349    2.5559    0.0000 C   0  0  0  0  0  0  0  0  0  0  0  0
    9.3474    1.8414    0.0000 C   0  0  0  0  0  0  0  0  0  0  0  0
   10.1724    1.8414    0.0000 C   0  0  0  0  0  0  0  0  0  0  0  0
   10.5849    2.5559    0.0000 C   0  0  0  0  0  0  0  0  0  0  0  0
   10.1724    3.2704    0.0000 Br  0  0  0  0  0  0  0  0  0  0  0  0
   11.4099    2.5559    0.0000 C   0  0  0  0  0  0  0  0  0  0  0  0
   11.8224    1.8414    0.0000 C   0  0  0  0  0  0  0  0  0  0  0  0
   11.4099    1.1270    0.0000 C   0  0  0  0  0  0  0  0  0  0  0  0
   11.8224    0.4125    0.0000 Cl  0  0  0  0  0  0  0  0  0  0  0  0
   10.5849    1.1270    0.0000 C   0  0  0  0  0  0  0  0  0  0  0  0
   10.1724    0.4125    0.0000 F   0  0  0  0  0  0  0  0  0  0  0  0
    8.9349    1.1270    0.0000 C   0  0  0  0  0  0  0  0  0  0  0  0
    8.1099    1.1270    0.0000 C   0  0  0  0  0  0  0  0  0  0  0  0
    7.6974    0.4125    0.0000 O   0  0  0  0  0  0  0  0  0  0  0  0
    6.4599    1.1270    0.0000 C   0  0  0  0  0  0  0  0  0  0  0  0
    5.6349    1.1270    0.0000 C   0  0  0  0  0  0  0  0  0  0  0  0
    5.2224    0.4125    0.0000 C   0  0  0  0  0  0  0  0  0  0  0  0
    5.6349   -0.3020    0.0000 C   0  0  0  0  0  0  0  0  0  0  0  0
    6.4599   -0.3020    0.0000 C   0  0  0  0  0  0  0  0  0  0  0  0
    6.8724    0.4125    0.0000 N   0  0  0  0  0  0  0  0  0  0  0  0
    4.3974    0.4125    0.0000 C   0  0  0  0  0  0  0  0  0  0  0  0
    3.9849   -0.3020    0.0000 C   0  0  0  0  0  0  0  0  0  0  0  0
    3.1599   -0.3020    0.0000 C   0  0  0  0  0  0  0  0  0  0  0  0
    2.7474   -1.0164    0.0000 F   0  0  0  0  0  0  0  0  0  0  0  0
    2.7474    0.4125    0.0000 C   0  0  0  0  0  0  0  0  0  0  0  0
    1.9224    0.4125    0.0000 F   0  0  0  0  0  0  0  0  0  0  0  0
    3.1599    1.1270    0.0000 C   0  0  0  0  0  0  0  0  0  0  0  0
    3.9849    1.1270    0.0000 C   0  0  0  0  0  0  0  0  0  0  0  0
    4.3974    1.8414    0.0000 N   0  0  0  0  0  0  0  0  0  0  0  0
    3.9849    2.5559    0.0000 C   0  0  0  0  0  0  0  0  0  0  0  0
    3.1599    2.5559    0.0000 O   0  0  0  0  0  0  0  0  0  0  0  0
  2  1  1  6  0  0  0
  2  3  1  0  0  0  0
  3  4  1  0  0  0  0
  4  5  1  0  0  0  0
  5  6  1  0  0  0  0
  6  7  1  6  0  0  0
  7  8  1  0  0  0  0
  8  9  1  0  0  0  0
  9 10  1  0  0  0  0
 10 11  1  0  0  0  0
 11 12  4  0  0  0  0
 12 13  1  0  0  0  0
 12 14  4  0  0  0  0
 14 15  4  0  0  0  0
 15 16  4  0  0  0  0
 16 17  1  0  0  0  0
 16 18  4  0  0  0  0
 11 18  4  0  0  0  0
 18 19  1  0  0  0  0
 10 20  2  0  0  0  0
 20 21  1  0  0  0  0
  7 21  1  0  0  0  0
 21 22  2  0  0  0  0
  6 23  1  0  0  0  0
 23 24  4  0  0  0  0
 24 25  4  0  0  0  0
 25 26  4  0  0  0  0
 26 27  4  0  0  0  0
 27 28  4  0  0  0  0
 23 28  4  0  0  0  0
 25 29  1  0  0  0  0
 29 30  4  0  0  0  0
 30 31  4  0  0  0  0
 31 32  1  0  0  0  0
 31 33  4  0  0  0  0
 33 34  1  0  0  0  0
 33 35  4  0  0  0  0
 35 36  4  0  0  0  0
 29 36  4  0  0  0  0
 36 37  1  0  0  0  0
 37 38  1  0  0  0  0
  2 38  1  0  0  0  0
 38 39  2  0  0  0  0
M  END
>  <CdId>
358958

>  <Mol Weight>
618.872

>  <Formula>
C29H24BrClF3N3O2

>  <cmpd_chemblid>
CHEMBL4108584

>  <std_type>
Ki

>  <std_value>
11.78

>  <std_unit>
nM

>  <target_id>
CHEMBL2016

>  <target_name>
Coagulation factor IX

>  <organism>
Homo sapiens

>  <target_type>
SINGLE PROTEIN

$$$$

  Mrv0541 08052111042D          

 71 78  0  0  1  0            999 V2000
    3.9849    3.9849    0.0000 C   0  0  0  0  0  0  0  0  0  0  0  0
    4.3974    3.2704    0.0000 C   0  0  2  0  0  0  0  0  0  0  0  0
    5.2224    3.2704    0.0000 C   0  0  0  0  0  0  0  0  0  0  0  0
    5.6349    2.5559    0.0000 C   0  0  0  0  0  0  0  0  0  0  0  0
    6.4599    2.5559    0.0000 C   0  0  0  0  0  0  0  0  0  0  0  0
    6.8724    1.8414    0.0000 C   0  0  2  0  0  0  0  0  0  0  0  0
    7.6974    1.8414    0.0000 N   0  0  0  0  0  0  0  0  0  0  0  0
    8.1099    2.5559    0.0000 C   0  0  0  0  0  0  0  0  0  0  0  0
    8.9349    2.5559    0.0000 C   0  0  0  0  0  0  0  0  0  0  0  0
    9.3474    1.8414    0.0000 C   0  0  0  0  0  0  0  0  0  0  0  0
   10.1724    1.8414    0.0000 C   0  0  0  0  0  0  0  0  0  0  0  0
   10.5849    2.5559    0.0000 C   0  0  0  0  0  0  0  0  0  0  0  0
   10.1724    3.2704    0.0000 F   0  0  0  0  0  0  0  0  0  0  0  0
   11.4099    2.5559    0.0000 C   0  0  0  0  0  0  0  0  0  0  0  0
   11.8224    1.8414    0.0000 C   0  0  0  0  0  0  0  0  0  0  0  0
   11.4099    1.1270    0.0000 C   0  0  0  0  0  0  0  0  0  0  0  0
   11.8224    0.4125    0.0000 Cl  0  0  0  0  0  0  0  0  0  0  0  0
   10.5849    1.1270    0.0000 C   0  0  0  0  0  0  0  0  0  0  0  0
   10.1724    0.4125    0.0000 F   0  0  0  0  0  0  0  0  0  0  0  0
    8.9349    1.1270    0.0000 C   0  0  0  0  0  0  0  0  0  0  0  0
    8.1099    1.1270    0.0000 C   0  0  0  0  0  0  0  0  0  0  0  0
    7.6974    0.4125    0.0000 O   0  0  0  0  0  0  0  0  0  0  0  0
    6.4599    1.1270    0.0000 C   0  0  0  0  0  0  0  0  0  0  0  0
    5.6349    1.1270    0.0000 C   0  0  0  0  0  0  0  0  0  0  0  0
    5.2224    0.4125    0.0000 C   0  0  0  0  0  0  0  0  0  0  0  0
    5.6349   -0.3020    0.0000 C   0  0  0  0  0  0  0  0  0  0  0  0
    6.4599   -0.3020    0.0000 C   0  0  0  0  0  0  0  0  0  0  0  0
    6.8724    0.4125    0.0000 N   0  0  0  0  0  0  0  0  0  0  0  0
    4.3974    0.4125    0.0000 C   0  0  0  0  0  0  0  0  0  0  0  0
    3.9849   -0.3020    0.0000 C   0  0  0  0  0  0  0  0  0  0  0  0
    3.1599   -0.3020    0.0000 C   0  0  0  0  0  0  0  0  0  0  0  0
    2.7474    0.4125    0.0000 C   0  0  0  0  0  0  0  0  0  0  0  0
    1.9224    0.4125    0.0000 N   0  0  0  0  0  0  0  0  0  0  0  0
    1.5099    1.1270    0.0000 C   0  0  0  0  0  0  0  0  0  0  0  0
    0.6849    1.1270    0.0000 O   0  0  0  0  0  0  0  0  0  0  0  0
    0.2724    1.8414    0.0000 C   0  0  2  0  0  0  0  0  0  0  0  0
   -0.5526    1.8414    0.0000 C   0  0  0  0  0  0  0  0  0  0  0  0
   -0.9651    2.5559    0.0000 O   0  0  0  0  0  0  0  0  0  0  0  0
    0.6849    2.5559    0.0000 C   0  0  1  0  0  0  0  0  0  0  0  0
    0.2724    3.2704    0.0000 O   0  0  0  0  0  0  0  0  0  0  0  0
    0.6849    3.9849    0.0000 C   0  0  1  0  0  0  0  0  0  0  0  0
    1.5099    3.9849    0.0000 O   0  0  0  0  0  0  0  0  0  0  0  0
    1.9224    4.6993    0.0000 C   0  0  2  0  0  0  0  0  0  0  0  0
    2.7474    4.6993    0.0000 C   0  0  0  0  0  0  0  0  0  0  0  0
    3.1599    5.4138    0.0000 O   0  0  0  0  0  0  0  0  0  0  0  0
    1.5099    5.4138    0.0000 C   0  0  1  0  0  0  0  0  0  0  0  0
    1.9224    6.1283    0.0000 O   0  0  0  0  0  0  0  0  0  0  0  0
    1.5099    6.8427    0.0000 C   0  0  1  0  0  0  0  0  0  0  0  0
    0.6849    6.8427    0.0000 O   0  0  0  0  0  0  0  0  0  0  0  0
    0.2724    7.5572    0.0000 C   0  0  2  0  0  0  0  0  0  0  0  0
   -0.5526    7.5572    0.0000 C   0  0  0  0  0  0  0  0  0  0  0  0
   -0.9651    6.8427    0.0000 O   0  0  0  0  0  0  0  0  0  0  0  0
    0.6849    8.2717    0.0000 C   0  0  1  0  0  0  0  0  0  0  0  0
    0.2724    8.9862    0.0000 O   0  0  0  0  0  0  0  0  0  0  0  0
    1.5099    8.2717    0.0000 C   0  0  2  0  0  0  0  0  0  0  0  0
    1.9224    8.9862    0.0000 O   0  0  0  0  0  0  0  0  0  0  0  0
    1.9224    7.5572    0.0000 C   0  0  1  0  0  0  0  0  0  0  0  0
    2.7474    7.5572    0.0000 O   0  0  0  0  0  0  0  0  0  0  0  0
    0.6849    5.4138    0.0000 C   0  0  2  0  0  0  0  0  0  0  0  0
    0.2724    6.1283    0.0000 O   0  0  0  0  0  0  0  0  0  0  0  0
    0.2724    4.6993    0.0000 C   0  0  1  0  0  0  0  0  0  0  0  0
   -0.5526    4.6993    0.0000 O   0  0  0  0  0  0  0  0  0  0  0  0
    1.5099    2.5559    0.0000 C   0  0  2  0  0  0  0  0  0  0  0  0
    1.9224    3.2704    0.0000 O   0  0  0  0  0  0  0  0  0  0  0  0
    1.9224    1.8414    0.0000 C   0  0  1  0  0  0  0  0  0  0  0  0
    2.7474    1.8414    0.0000 O   0  0  0  0  0  0  0  0  0  0  0  0
    3.1599    1.1270    0.0000 C   0  0  0  0  0  0  0  0  0  0  0  0
    3.9849    1.1270    0.0000 C   0  0  0  0  0  0  0  0  0  0  0  0
    4.3974    1.8414    0.0000 N   0  0  0  0  0  0  0  0  0  0  0  0
    3.9849    2.5559    0.0000 C   0  0  0  0  0  0  0  0  0  0  0  0
    3.1599    2.5559    0.0000 O   0  0  0  0  0  0  0  0  0  0  0  0
  2  1  1  6  0  0  0
  2  3  1  0  0  0  0
  3  4  1  0  0  0  0
  4  5  1  0  0  0  0
  5  6  1  0  0  0  0
  6  7  1  6  0  0  0
  7  8  1  0  0  0  0
  8  9  1  0  0  0  0
  9 10  1  0  0  0  0
 10 11  1  0  0  0  0
 11 12  4  0  0  0  0
 12 13  1  0  0  0  0
 12 14  4  0  0  0  0
 14 15  4  0  0  0  0
 15 16  4  0  0  0  0
 16 17  1  0  0  0  0
 16 18  4  0  0  0  0
 11 18  4  0  0  0  0
 18 19  1  0  0  0  0
 10 20  2  0  0  0  0
 20 21  1  0  0  0  0
  7 21  1  0  0  0  0
 21 22  2  0  0  0  0
  6 23  1  0  0  0  0
 23 24  4  0  0  0  0
 24 25  4  0  0  0  0
 25 26  4  0  0  0  0
 26 27  4  0  0  0  0
 27 28  4  0  0  0  0
 23 28  4  0  0  0  0
 25 29  1  0  0  0  0
 29 30  4  0  0  0  0
 30 31  4  0  0  0  0
 31 32  4  0  0  0  0
 32 33  1  0  0  0  0
 33 34  1  0  0  0  0
 34 35  1  0  0  0  0
 35 36  1  0  0  0  0
 36 37  1  6  0  0  0
 37 38  1  0  0  0  0
 36 39  1  0  0  0  0
 39 40  1  1  0  0  0
 41 40  1  6  0  0  0
 41 42  1  0  0  0  0
 42 43  1  0  0  0  0
 43 44  1  1  0  0  0
 44 45  1  0  0  0  0
 43 46  1  0  0  0  0
 46 47  1  6  0  0  0
 48 47  1  1  0  0  0
 48 49  1  0  0  0  0
 49 50  1  0  0  0  0
 50 51  1  6  0  0  0
 51 52  1  0  0  0  0
 50 53  1  0  0  0  0
 53 54  1  1  0  0  0
 53 55  1  0  0  0  0
 55 56  1  6  0  0  0
 55 57  1  0  0  0  0
 48 57  1  0  0  0  0
 57 58  1  1  0  0  0
 46 59  1  0  0  0  0
 59 60  1  1  0  0  0
 59 61  1  0  0  0  0
 41 61  1  0  0  0  0
 61 62  1  6  0  0  0
 39 63  1  0  0  0  0
 63 64  1  6  0  0  0
 63 65  1  0  0  0  0
 34 65  1  0  0  0  0
 65 66  1  1  0  0  0
 32 67  4  0  0  0  0
 67 68  4  0  0  0  0
 29 68  4  0  0  0  0
 68 69  1  0  0  0  0
 69 70  1  0  0  0  0
  2 70  1  0  0  0  0
 70 71  2  0  0  0  0
M  END
>  <CdId>
358959

>  <Mol Weight>
1023.422

>  <Formula>
C47H57ClF2N4O17

>  <cmpd_chemblid>
CHEMBL4113271

>  <std_type>
Ki

>  <std_value>
4.77

>  <std_unit>
nM

>  <target_id>
CHEMBL2016

>  <target_name>
Coagulation factor IX

>  <organism>
Homo sapiens

>  <target_type>
SINGLE PROTEIN

$$$$

  Mrv0541 08052111042D          

 35 40  0  0  1  0            999 V2000
    9.0730    0.6738    0.0000 N   0  0  0  0  0  0  0  0  0  0  0  0
    9.3280    1.4584    0.0000 C   0  0  0  0  0  0  0  0  0  0  0  0
    8.8430    2.1259    0.0000 N   0  0  0  0  0  0  0  0  0  0  0  0
    9.3280    2.7933    0.0000 O   0  0  0  0  0  0  0  0  0  0  0  0
   10.1126    2.5384    0.0000 C   0  0  0  0  0  0  0  0  0  0  0  0
   10.8270    2.9509    0.0000 C   0  0  0  0  0  0  0  0  0  0  0  0
   10.8270    3.7759    0.0000 N   0  0  0  0  0  0  0  0  0  0  0  0
   10.1596    4.2608    0.0000 C   0  0  0  0  0  0  0  0  0  0  0  0
   10.4145    5.0454    0.0000 C   0  0  0  0  0  0  0  0  0  0  0  0
   11.2395    5.0454    0.0000 C   0  0  1  0  0  0  0  0  0  0  0  0
   11.7245    5.7129    0.0000 N   0  0  0  0  0  0  0  0  0  0  0  0
   11.3889    6.4665    0.0000 C   0  0  0  0  0  0  0  0  0  0  0  0
   10.5684    6.5528    0.0000 O   0  0  0  0  0  0  0  0  0  0  0  0
   11.8738    7.1340    0.0000 C   0  0  0  0  0  0  0  0  0  0  0  0
   11.5383    7.8876    0.0000 C   0  0  0  0  0  0  0  0  0  0  0  0
   12.0232    8.5551    0.0000 C   0  0  0  0  0  0  0  0  0  0  0  0
   12.8437    8.4688    0.0000 C   0  0  0  0  0  0  0  0  0  0  0  0
   13.3286    9.1363    0.0000 N   0  0  0  0  0  0  0  0  0  0  0  0
   13.0737    9.9209    0.0000 C   0  0  0  0  0  0  0  0  0  0  0  0
   13.7411   10.4058    0.0000 N   0  0  0  0  0  0  0  0  0  0  0  0
   14.4085    9.9209    0.0000 C   0  0  0  0  0  0  0  0  0  0  0  0
   15.2155   10.0924    0.0000 N   0  0  0  0  0  0  0  0  0  0  0  0
   15.7675    9.4793    0.0000 C   0  0  0  0  0  0  0  0  0  0  0  0
   15.5126    8.6947    0.0000 C   0  0  0  0  0  0  0  0  0  0  0  0
   14.7056    8.5232    0.0000 C   0  0  0  0  0  0  0  0  0  0  0  0
   14.1536    9.1363    0.0000 C   0  0  0  0  0  0  0  0  0  0  0  0
   13.1792    7.7152    0.0000 C   0  0  0  0  0  0  0  0  0  0  0  0
   12.6943    7.0477    0.0000 C   0  0  0  0  0  0  0  0  0  0  0  0
   13.0299    6.2941    0.0000 Cl  0  0  0  0  0  0  0  0  0  0  0  0
   11.4945    4.2608    0.0000 C   0  0  0  0  0  0  0  0  0  0  0  0
   11.5415    2.5384    0.0000 N   0  0  0  0  0  0  0  0  0  0  0  0
   11.5415    1.7134    0.0000 C   0  0  0  0  0  0  0  0  0  0  0  0
   10.8270    1.3009    0.0000 C   0  0  0  0  0  0  0  0  0  0  0  0
   10.8270    0.4759    0.0000 Cl  0  0  0  0  0  0  0  0  0  0  0  0
   10.1126    1.7134    0.0000 C   0  0  0  0  0  0  0  0  0  0  0  0
  1  2  1  0  0  0  0
  2  3  4  0  0  0  0
  3  4  4  0  0  0  0
  4  5  4  0  0  0  0
  5  6  4  0  0  0  0
  6  7  1  0  0  0  0
  7  8  1  0  0  0  0
  8  9  1  0  0  0  0
  9 10  1  0  0  0  0
 10 11  1  1  0  0  0
 11 12  1  0  0  0  0
 12 13  2  0  0  0  0
 12 14  1  0  0  0  0
 14 15  4  0  0  0  0
 15 16  4  0  0  0  0
 16 17  4  0  0  0  0
 17 18  1  0  0  0  0
 18 19  4  0  0  0  0
 19 20  4  0  0  0  0
 20 21  4  0  0  0  0
 21 22  4  0  0  0  0
 22 23  4  0  0  0  0
 23 24  4  0  0  0  0
 24 25  4  0  0  0  0
 25 26  4  0  0  0  0
 21 26  4  0  0  0  0
 18 26  4  0  0  0  0
 17 27  4  0  0  0  0
 27 28  4  0  0  0  0
 14 28  4  0  0  0  0
 28 29  1  0  0  0  0
 10 30  1  0  0  0  0
  7 30  1  0  0  0  0
  6 31  4  0  0  0  0
 31 32  4  0  0  0  0
 32 33  4  0  0  0  0
 33 34  1  0  0  0  0
 33 35  4  0  0  0  0
  2 35  4  0  0  0  0
  5 35  4  0  0  0  0
M  END
>  <CdId>
358960

>  <Mol Weight>
509.347

>  <Formula>
C23H18Cl2N8O2

>  <cmpd_chemblid>
CHEMBL4066380

>  <std_type>
Ki

>  <std_value>
6.5

>  <std_unit>
nM

>  <target_id>
CHEMBL2016

>  <target_name>
Coagulation factor IX

>  <organism>
Homo sapiens

>  <target_type>
SINGLE PROTEIN

$$$$

  Mrv0541 08052111042D          

 41 43  0  0  1  0            999 V2000
   -2.7602    2.3367    0.0000 C   0  0  0  0  0  0  0  0  0  0  0  0
   -2.2082    1.7237    0.0000 C   0  0  0  0  0  0  0  0  0  0  0  0
   -2.4631    0.9390    0.0000 O   0  0  0  0  0  0  0  0  0  0  0  0
   -1.9111    0.3259    0.0000 C   0  0  0  0  0  0  0  0  0  0  0  0
   -1.1041    0.4975    0.0000 O   0  0  0  0  0  0  0  0  0  0  0  0
   -2.1660   -0.4587    0.0000 C   0  0  2  0  0  0  0  0  0  0  0  0
   -2.9730   -0.6302    0.0000 C   0  0  0  0  0  0  0  0  0  0  0  0
   -3.2279   -1.4148    0.0000 C   0  0  0  0  0  0  0  0  0  0  0  0
   -2.6759   -2.0279    0.0000 C   0  0  0  0  0  0  0  0  0  0  0  0
   -1.8689   -1.8564    0.0000 C   0  0  0  0  0  0  0  0  0  0  0  0
   -1.6140   -1.0718    0.0000 C   0  0  0  0  0  0  0  0  0  0  0  0
   -0.8070   -0.9003    0.0000 N   0  0  0  0  0  0  0  0  0  0  0  0
   -0.5521   -0.1156    0.0000 C   0  0  0  0  0  0  0  0  0  0  0  0
   -0.6383    0.7049    0.0000 O   0  0  0  0  0  0  0  0  0  0  0  0
    0.2549    0.0559    0.0000 C   0  0  0  0  0  0  0  0  0  0  0  0
    0.8069   -0.5572    0.0000 C   0  0  0  0  0  0  0  0  0  0  0  0
    0.5520   -1.3418    0.0000 C   0  0  0  0  0  0  0  0  0  0  0  0
    1.1040   -1.9549    0.0000 C   0  0  0  0  0  0  0  0  0  0  0  0
    0.8491   -2.7395    0.0000 C   0  0  0  0  0  0  0  0  0  0  0  0
    0.0421   -2.9111    0.0000 C   0  0  0  0  0  0  0  0  0  0  0  0
   -0.5099   -2.2980    0.0000 C   0  0  0  0  0  0  0  0  0  0  0  0
   -0.2550   -1.5133    0.0000 C   0  0  0  0  0  0  0  0  0  0  0  0
    0.5098    0.8405    0.0000 C   0  0  0  0  0  0  0  0  0  0  0  0
    0.0249    1.5080    0.0000 C   0  0  0  0  0  0  0  0  0  0  0  0
    0.5098    2.1754    0.0000 S   0  0  0  0  0  0  0  0  0  0  0  0
    1.2944    1.9205    0.0000 C   0  0  0  0  0  0  0  0  0  0  0  0
    2.0089    2.3330    0.0000 C   0  0  0  0  0  0  0  0  0  0  0  0
    2.7234    1.9205    0.0000 C   0  0  0  0  0  0  0  0  0  0  0  0
    2.7234    1.0955    0.0000 C   0  0  0  0  0  0  0  0  0  0  0  0
    3.4379    0.6830    0.0000 C   0  0  0  0  0  0  0  0  0  0  0  0
    3.4379   -0.1420    0.0000 N   0  0  0  0  0  0  0  0  0  0  0  0
    4.1523    1.0955    0.0000 N   0  0  0  0  0  0  0  0  0  0  0  0
    2.0089    0.6830    0.0000 C   0  0  0  0  0  0  0  0  0  0  0  0
    1.2944    1.0955    0.0000 C   0  0  0  0  0  0  0  0  0  0  0  0
    6.2664   -0.8839    0.0000 O   0  0  0  0  0  0  0  0  0  0  0  0
    6.9809   -0.4714    0.0000 C   0  0  0  0  0  0  0  0  0  0  0  0
    7.6954   -0.8839    0.0000 O   0  0  0  0  0  0  0  0  0  0  0  0
    6.9809    0.3536    0.0000 C   0  0  0  0  0  0  0  0  0  0  0  0
    6.9809    1.1786    0.0000 F   0  0  0  0  0  0  0  0  0  0  0  0
    7.8059    0.3536    0.0000 F   0  0  0  0  0  0  0  0  0  0  0  0
    6.1559    0.3536    0.0000 F   0  0  0  0  0  0  0  0  0  0  0  0
  1  2  1  0  0  0  0
  2  3  1  0  0  0  0
  3  4  1  0  0  0  0
  4  5  2  0  0  0  0
  6  4  1  1  0  0  0
  6  7  1  0  0  0  0
  7  8  1  0  0  0  0
  8  9  1  0  0  0  0
  9 10  1  0  0  0  0
 10 11  1  0  0  0  0
  6 11  1  0  0  0  0
 11 12  1  0  0  0  0
 12 13  1  0  0  0  0
 13 14  2  0  0  0  0
 13 15  1  0  0  0  0
 15 16  1  0  0  0  0
 16 17  1  0  0  0  0
 17 18  4  0  0  0  0
 18 19  4  0  0  0  0
 19 20  4  0  0  0  0
 20 21  4  0  0  0  0
 21 22  4  0  0  0  0
 17 22  4  0  0  0  0
 15 23  1  0  0  0  0
 23 24  4  0  0  0  0
 24 25  4  0  0  0  0
 25 26  4  0  0  0  0
 26 27  4  0  0  0  0
 27 28  4  0  0  0  0
 28 29  4  0  0  0  0
 29 30  1  0  0  0  0
 30 31  2  0  0  0  0
 30 32  1  0  0  0  0
 29 33  4  0  0  0  0
 33 34  4  0  0  0  0
 23 34  4  0  0  0  0
 26 34  4  0  0  0  0
 35 36  2  0  0  0  0
 36 37  1  0  0  0  0
 36 38  1  0  0  0  0
 38 39  1  0  0  0  0
 38 40  1  0  0  0  0
 38 41  1  0  0  0  0
M  END
>  <CdId>
358962

>  <Mol Weight>
591.642

>  <Formula>
C29H32F3N3O5S

>  <cmpd_chemblid>
CHEMBL368878

>  <std_type>
Ki

>  <std_value>
120.0

>  <std_unit>
nM

>  <target_id>
CHEMBL2016

>  <target_name>
Coagulation factor IX

>  <organism>
Homo sapiens

>  <target_type>
SINGLE PROTEIN

$$$$

  Mrv0541 08052111042D          

 45 48  0  0  0  0            999 V2000
    2.4099   -2.4885    0.0000 N   0  0  0  0  0  0  0  0  0  0  0  0
    1.6954   -2.0760    0.0000 C   0  0  0  0  0  0  0  0  0  0  0  0
    1.6954   -1.2510    0.0000 N   0  0  0  0  0  0  0  0  0  0  0  0
    0.9809   -2.4885    0.0000 C   0  0  0  0  0  0  0  0  0  0  0  0
    0.9809   -3.3135    0.0000 C   0  0  0  0  0  0  0  0  0  0  0  0
    0.2664   -3.7260    0.0000 C   0  0  0  0  0  0  0  0  0  0  0  0
   -0.4480   -3.3135    0.0000 C   0  0  0  0  0  0  0  0  0  0  0  0
   -1.2327   -3.5685    0.0000 S   0  0  0  0  0  0  0  0  0  0  0  0
   -1.7176   -2.9010    0.0000 C   0  0  0  0  0  0  0  0  0  0  0  0
   -1.2327   -2.2336    0.0000 C   0  0  0  0  0  0  0  0  0  0  0  0
   -1.4876   -1.4490    0.0000 C   0  0  0  0  0  0  0  0  0  0  0  0
   -2.2946   -1.2774    0.0000 C   0  0  0  0  0  0  0  0  0  0  0  0
   -2.5495   -0.4928    0.0000 C   0  0  0  0  0  0  0  0  0  0  0  0
   -3.3565   -0.3213    0.0000 C   0  0  0  0  0  0  0  0  0  0  0  0
   -3.6114    0.4633    0.0000 C   0  0  0  0  0  0  0  0  0  0  0  0
   -3.0594    1.0764    0.0000 C   0  0  0  0  0  0  0  0  0  0  0  0
   -2.2524    0.9049    0.0000 C   0  0  0  0  0  0  0  0  0  0  0  0
   -1.9975    0.1203    0.0000 C   0  0  0  0  0  0  0  0  0  0  0  0
   -0.9356   -0.8359    0.0000 C   0  0  0  0  0  0  0  0  0  0  0  0
   -0.1286   -1.0074    0.0000 O   0  0  0  0  0  0  0  0  0  0  0  0
   -1.1905   -0.0512    0.0000 N   0  0  0  0  0  0  0  0  0  0  0  0
   -0.6385    0.5618    0.0000 C   0  0  0  0  0  0  0  0  0  0  0  0
   -0.8934    1.3465    0.0000 C   0  0  0  0  0  0  0  0  0  0  0  0
   -0.3414    1.9596    0.0000 C   0  0  0  0  0  0  0  0  0  0  0  0
    0.4656    1.7880    0.0000 C   0  0  0  0  0  0  0  0  0  0  0  0
    1.0176    2.4011    0.0000 N   0  0  0  0  0  0  0  0  0  0  0  0
    0.8461    3.2081    0.0000 C   0  0  0  0  0  0  0  0  0  0  0  0
    1.5606    3.6206    0.0000 C   0  0  0  0  0  0  0  0  0  0  0  0
    2.1737    3.0686    0.0000 C   0  0  0  0  0  0  0  0  0  0  0  0
    2.9806    3.2401    0.0000 C   0  0  0  0  0  0  0  0  0  0  0  0
    3.7876    3.4116    0.0000 F   0  0  0  0  0  0  0  0  0  0  0  0
    3.1522    2.4331    0.0000 F   0  0  0  0  0  0  0  0  0  0  0  0
    2.8091    4.0471    0.0000 F   0  0  0  0  0  0  0  0  0  0  0  0
    1.8381    2.3149    0.0000 N   0  0  0  0  0  0  0  0  0  0  0  0
    0.7205    1.0034    0.0000 C   0  0  0  0  0  0  0  0  0  0  0  0
    0.1685    0.3903    0.0000 C   0  0  0  0  0  0  0  0  0  0  0  0
   -0.4480   -2.4885    0.0000 C   0  0  0  0  0  0  0  0  0  0  0  0
    0.2664   -2.0760    0.0000 C   0  0  0  0  0  0  0  0  0  0  0  0
    5.9017   -0.8839    0.0000 O   0  0  0  0  0  0  0  0  0  0  0  0
    6.6162   -0.4714    0.0000 C   0  0  0  0  0  0  0  0  0  0  0  0
    7.3307   -0.8839    0.0000 O   0  0  0  0  0  0  0  0  0  0  0  0
    6.6162    0.3536    0.0000 C   0  0  0  0  0  0  0  0  0  0  0  0
    6.6162    1.1786    0.0000 F   0  0  0  0  0  0  0  0  0  0  0  0
    7.4412    0.3536    0.0000 F   0  0  0  0  0  0  0  0  0  0  0  0
    5.7912    0.3536    0.0000 F   0  0  0  0  0  0  0  0  0  0  0  0
  1  2  2  0  0  0  0
  2  3  1  0  0  0  0
  2  4  1  0  0  0  0
  4  5  4  0  0  0  0
  5  6  4  0  0  0  0
  6  7  4  0  0  0  0
  7  8  4  0  0  0  0
  8  9  4  0  0  0  0
  9 10  4  0  0  0  0
 10 11  1  0  0  0  0
 11 12  1  0  0  0  0
 12 13  1  0  0  0  0
 13 14  4  0  0  0  0
 14 15  4  0  0  0  0
 15 16  4  0  0  0  0
 16 17  4  0  0  0  0
 17 18  4  0  0  0  0
 13 18  4  0  0  0  0
 11 19  1  0  0  0  0
 19 20  2  0  0  0  0
 19 21  1  0  0  0  0
 21 22  1  0  0  0  0
 22 23  4  0  0  0  0
 23 24  4  0  0  0  0
 24 25  4  0  0  0  0
 25 26  1  0  0  0  0
 26 27  4  0  0  0  0
 27 28  4  0  0  0  0
 28 29  4  0  0  0  0
 29 30  1  0  0  0  0
 30 31  1  0  0  0  0
 30 32  1  0  0  0  0
 30 33  1  0  0  0  0
 29 34  4  0  0  0  0
 26 34  4  0  0  0  0
 25 35  4  0  0  0  0
 35 36  4  0  0  0  0
 22 36  4  0  0  0  0
 10 37  4  0  0  0  0
  7 37  4  0  0  0  0
 37 38  4  0  0  0  0
  4 38  4  0  0  0  0
 39 40  2  0  0  0  0
 40 41  1  0  0  0  0
 40 42  1  0  0  0  0
 42 43  1  0  0  0  0
 42 44  1  0  0  0  0
 42 45  1  0  0  0  0
M  END
>  <CdId>
358964

>  <Mol Weight>
647.591

>  <Formula>
C30H23F6N5O3S

>  <cmpd_chemblid>
CHEMBL361327

>  <std_type>
Ki

>  <std_value>
130.0

>  <std_unit>
nM

>  <target_id>
CHEMBL2016

>  <target_name>
Coagulation factor IX

>  <organism>
Homo sapiens

>  <target_type>
SINGLE PROTEIN

$$$$

  Mrv0541 08052111042D          

 41 44  0  0  1  0            999 V2000
    6.3812    4.1680    0.0000 C   0  0  0  0  0  0  0  0  0  0  0  0
    6.0456    3.4144    0.0000 N   0  0  0  0  0  0  0  0  0  0  0  0
    6.5306    2.7469    0.0000 C   0  0  0  0  0  0  0  0  0  0  0  0
    5.2252    3.3281    0.0000 C   0  0  0  0  0  0  0  0  0  0  0  0
    4.8896    2.5745    0.0000 N   0  0  0  0  0  0  0  0  0  0  0  0
    4.0691    2.4882    0.0000 C   0  0  0  0  0  0  0  0  0  0  0  0
    3.5842    3.1557    0.0000 C   0  0  0  0  0  0  0  0  0  0  0  0
    2.7637    3.0694    0.0000 S   0  0  0  0  0  0  0  0  0  0  0  0
    2.6775    3.8899    0.0000 O   0  0  0  0  0  0  0  0  0  0  0  0
    2.8500    2.2489    0.0000 O   0  0  0  0  0  0  0  0  0  0  0  0
    1.9432    2.9832    0.0000 N   0  0  0  0  0  0  0  0  0  0  0  0
    1.6077    2.2295    0.0000 C   0  0  1  0  0  0  0  0  0  0  0  0
    2.0202    1.5150    0.0000 C   0  0  0  0  0  0  0  0  0  0  0  0
    1.4681    0.9019    0.0000 C   0  0  0  0  0  0  0  0  0  0  0  0
    0.7145    1.2375    0.0000 N   0  0  0  0  0  0  0  0  0  0  0  0
    0.0000    0.8250    0.0000 C   0  0  2  0  0  0  0  0  0  0  0  0
    0.0000    0.0000    0.0000 C   0  0  0  0  0  0  0  0  0  0  0  0
    0.7145   -0.4125    0.0000 C   0  0  0  0  0  0  0  0  0  0  0  0
    1.4289    0.0000    0.0000 C   0  0  0  0  0  0  0  0  0  0  0  0
    2.1434   -0.4125    0.0000 C   0  0  0  0  0  0  0  0  0  0  0  0
    2.8579    0.0000    0.0000 C   0  0  0  0  0  0  0  0  0  0  0  0
    3.5724   -0.4125    0.0000 C   0  0  0  0  0  0  0  0  0  0  0  0
    3.5724   -1.2375    0.0000 N   0  0  0  0  0  0  0  0  0  0  0  0
    2.8579   -1.6500    0.0000 C   0  0  0  0  0  0  0  0  0  0  0  0
    2.8579   -2.4750    0.0000 N   0  0  0  0  0  0  0  0  0  0  0  0
    2.1434   -1.2375    0.0000 C   0  0  0  0  0  0  0  0  0  0  0  0
    1.4289   -1.6500    0.0000 C   0  0  0  0  0  0  0  0  0  0  0  0
    0.7145   -1.2375    0.0000 C   0  0  0  0  0  0  0  0  0  0  0  0
    0.0000   -1.6500    0.0000 O   0  0  0  0  0  0  0  0  0  0  0  0
   -0.7145   -1.2375    0.0000 C   0  0  0  0  0  0  0  0  0  0  0  0
   -0.3020   -0.5230    0.0000 F   0  0  0  0  0  0  0  0  0  0  0  0
   -1.1270   -1.9520    0.0000 F   0  0  0  0  0  0  0  0  0  0  0  0
   -1.4289   -0.8250    0.0000 F   0  0  0  0  0  0  0  0  0  0  0  0
   -0.7145    1.2375    0.0000 C   0  0  0  0  0  0  0  0  0  0  0  0
   -1.4289    0.8250    0.0000 O   0  0  0  0  0  0  0  0  0  0  0  0
   -0.7145    2.0625    0.0000 O   0  0  0  0  0  0  0  0  0  0  0  0
    0.8007    2.0580    0.0000 C   0  0  0  0  0  0  0  0  0  0  0  0
    0.1876    2.6100    0.0000 O   0  0  0  0  0  0  0  0  0  0  0  0
    3.9198    3.9093    0.0000 C   0  0  0  0  0  0  0  0  0  0  0  0
    4.7402    3.9956    0.0000 C   0  0  0  0  0  0  0  0  0  0  0  0
    5.0758    4.7492    0.0000 Cl  0  0  0  0  0  0  0  0  0  0  0  0
  1  2  1  0  0  0  0
  2  3  1  0  0  0  0
  2  4  1  0  0  0  0
  4  5  4  0  0  0  0
  5  6  4  0  0  0  0
  6  7  4  0  0  0  0
  7  8  1  0  0  0  0
  8  9  2  0  0  0  0
  8 10  2  0  0  0  0
  8 11  1  0  0  0  0
 12 11  1  1  0  0  0
 12 13  1  0  0  0  0
 13 14  1  0  0  0  0
 14 15  1  0  0  0  0
 16 15  1  6  0  0  0
 16 17  1  0  0  0  0
 17 18  1  0  0  0  0
 18 19  4  0  0  0  0
 19 20  4  0  0  0  0
 20 21  4  0  0  0  0
 21 22  4  0  0  0  0
 22 23  4  0  0  0  0
 23 24  4  0  0  0  0
 24 25  1  0  0  0  0
 24 26  4  0  0  0  0
 20 26  4  0  0  0  0
 26 27  4  0  0  0  0
 27 28  4  0  0  0  0
 18 28  4  0  0  0  0
 28 29  1  0  0  0  0
 29 30  1  0  0  0  0
 30 31  1  0  0  0  0
 30 32  1  0  0  0  0
 30 33  1  0  0  0  0
 16 34  1  0  0  0  0
 34 35  2  0  0  0  0
 34 36  1  0  0  0  0
 15 37  1  0  0  0  0
 12 37  1  0  0  0  0
 37 38  2  0  0  0  0
  7 39  4  0  0  0  0
 39 40  4  0  0  0  0
  4 40  4  0  0  0  0
 40 41  1  0  0  0  0
M  END
>  <CdId>
358965

>  <Mol Weight>
616.997

>  <Formula>
C24H24ClF3N6O6S

>  <cmpd_chemblid>
CHEMBL3966253

>  <std_type>
Ki

>  <std_value>
55.0

>  <std_unit>
nM

>  <target_id>
CHEMBL2016

>  <target_name>
Coagulation factor IX

>  <organism>
Homo sapiens

>  <target_type>
SINGLE PROTEIN

$$$$

  Mrv0541 08052111042D          

 38 42  0  0  0  0            999 V2000
   -5.8019    2.0202    0.0000 N   0  0  0  0  0  0  0  0  0  0  0  0
   -4.9769    2.0202    0.0000 C   0  0  0  0  0  0  0  0  0  0  0  0
   -4.5644    2.7346    0.0000 N   0  0  0  0  0  0  0  0  0  0  0  0
   -4.5644    1.3057    0.0000 C   0  0  0  0  0  0  0  0  0  0  0  0
   -3.7439    1.2195    0.0000 C   0  0  0  0  0  0  0  0  0  0  0  0
   -3.5724    0.4125    0.0000 C   0  0  0  0  0  0  0  0  0  0  0  0
   -2.8579   -0.0000    0.0000 C   0  0  0  0  0  0  0  0  0  0  0  0
   -2.1434    0.4125    0.0000 O   0  0  0  0  0  0  0  0  0  0  0  0
   -1.4289   -0.0000    0.0000 C   0  0  0  0  0  0  0  0  0  0  0  0
   -0.7145    0.4125    0.0000 C   0  0  0  0  0  0  0  0  0  0  0  0
    0.0000   -0.0000    0.0000 O   0  0  0  0  0  0  0  0  0  0  0  0
    0.7145    0.4125    0.0000 C   0  0  0  0  0  0  0  0  0  0  0  0
    0.7145    1.2375    0.0000 O   0  0  0  0  0  0  0  0  0  0  0  0
    1.4289   -0.0000    0.0000 N   0  0  0  0  0  0  0  0  0  0  0  0
    2.1434    0.4125    0.0000 C   0  0  0  0  0  0  0  0  0  0  0  0
    2.1434    1.2375    0.0000 C   0  0  0  0  0  0  0  0  0  0  0  0
    2.8579    1.6500    0.0000 C   0  0  0  0  0  0  0  0  0  0  0  0
    3.5724    1.2375    0.0000 C   0  0  0  0  0  0  0  0  0  0  0  0
    3.5724    0.4125    0.0000 C   0  0  0  0  0  0  0  0  0  0  0  0
    2.8579    0.0000    0.0000 C   0  0  0  0  0  0  0  0  0  0  0  0
    2.8579   -0.8250    0.0000 C   0  0  0  0  0  0  0  0  0  0  0  0
    3.5724   -1.2375    0.0000 N   0  0  0  0  0  0  0  0  0  0  0  0
    4.2868   -0.8250    0.0000 C   0  0  0  0  0  0  0  0  0  0  0  0
    5.0013   -1.2375    0.0000 C   0  0  0  0  0  0  0  0  0  0  0  0
    5.0013   -2.0625    0.0000 N   0  0  0  0  0  0  0  0  0  0  0  0
    4.2868   -2.4750    0.0000 C   0  0  0  0  0  0  0  0  0  0  0  0
    3.5724   -2.0625    0.0000 C   0  0  0  0  0  0  0  0  0  0  0  0
   -1.4289   -0.8250    0.0000 C   0  0  0  0  0  0  0  0  0  0  0  0
   -0.7145   -1.2375    0.0000 C   0  0  0  0  0  0  0  0  0  0  0  0
   -0.7145   -2.0625    0.0000 C   0  0  0  0  0  0  0  0  0  0  0  0
   -1.4289   -2.4750    0.0000 C   0  0  0  0  0  0  0  0  0  0  0  0
   -2.1434   -2.0625    0.0000 C   0  0  0  0  0  0  0  0  0  0  0  0
   -2.1434   -1.2375    0.0000 C   0  0  0  0  0  0  0  0  0  0  0  0
   -2.8579   -0.8250    0.0000 C   0  0  0  0  0  0  0  0  0  0  0  0
   -3.5724   -1.2375    0.0000 C   0  0  0  0  0  0  0  0  0  0  0  0
   -4.2868   -0.8250    0.0000 C   0  0  0  0  0  0  0  0  0  0  0  0
   -4.2868   -0.0000    0.0000 C   0  0  0  0  0  0  0  0  0  0  0  0
   -4.8999    0.5520    0.0000 S   0  0  0  0  0  0  0  0  0  0  0  0
  1  2  2  0  0  0  0
  2  3  1  0  0  0  0
  2  4  1  0  0  0  0
  4  5  4  0  0  0  0
  5  6  4  0  0  0  0
  6  7  4  0  0  0  0
  7  8  1  0  0  0  0
  8  9  1  0  0  0  0
  9 10  1  0  0  0  0
 10 11  1  0  0  0  0
 11 12  1  0  0  0  0
 12 13  2  0  0  0  0
 12 14  1  0  0  0  0
 14 15  1  0  0  0  0
 15 16  4  0  0  0  0
 16 17  4  0  0  0  0
 17 18  4  0  0  0  0
 18 19  4  0  0  0  0
 19 20  4  0  0  0  0
 15 20  4  0  0  0  0
 20 21  1  0  0  0  0
 21 22  1  0  0  0  0
 22 23  1  0  0  0  0
 23 24  1  0  0  0  0
 24 25  1  0  0  0  0
 25 26  1  0  0  0  0
 26 27  1  0  0  0  0
 22 27  1  0  0  0  0
  9 28  1  0  0  0  0
 28 29  4  0  0  0  0
 29 30  4  0  0  0  0
 30 31  4  0  0  0  0
 31 32  4  0  0  0  0
 32 33  4  0  0  0  0
 28 33  4  0  0  0  0
  7 34  4  0  0  0  0
 34 35  4  0  0  0  0
 35 36  4  0  0  0  0
 36 37  4  0  0  0  0
  6 37  4  0  0  0  0
 37 38  4  0  0  0  0
  4 38  4  0  0  0  0
M  END
>  <CdId>
358966

>  <Mol Weight>
529.653

>  <Formula>
C29H31N5O3S

>  <cmpd_chemblid>
CHEMBL597759

>  <std_type>
Ki

>  <std_value>
3.0

>  <std_unit>
nM

>  <target_id>
CHEMBL2016

>  <target_name>
Coagulation factor IX

>  <organism>
Homo sapiens

>  <target_type>
SINGLE PROTEIN

$$$$

  Mrv0541 08052111042D          

 32 34  0  0  1  0            999 V2000
    2.1434   -3.7125    0.0000 N   0  0  0  0  0  0  0  0  0  0  0  0
    2.8579   -4.1250    0.0000 C   0  0  0  0  0  0  0  0  0  0  0  0
    3.5724   -3.7125    0.0000 N   0  0  0  0  0  0  0  0  0  0  0  0
    2.8579   -4.9500    0.0000 C   0  0  0  0  0  0  0  0  0  0  0  0
    3.5724   -5.3625    0.0000 C   0  0  0  0  0  0  0  0  0  0  0  0
    3.5724   -6.1875    0.0000 C   0  0  0  0  0  0  0  0  0  0  0  0
    2.8579   -6.6000    0.0000 C   0  0  0  0  0  0  0  0  0  0  0  0
    2.8579   -7.4250    0.0000 N   0  0  0  0  0  0  0  0  0  0  0  0
    3.5724   -7.8375    0.0000 C   0  0  0  0  0  0  0  0  0  0  0  0
    4.2868   -7.4250    0.0000 O   0  0  0  0  0  0  0  0  0  0  0  0
    3.5724   -8.6625    0.0000 C   0  0  2  0  0  0  0  0  0  0  0  0
    2.8579   -9.0750    0.0000 O   0  0  0  0  0  0  0  0  0  0  0  0
    4.2868   -9.0750    0.0000 C   0  0  1  0  0  0  0  0  0  0  0  0
    5.0013   -8.6625    0.0000 O   0  0  0  0  0  0  0  0  0  0  0  0
    5.7158   -9.0750    0.0000 C   0  0  0  0  0  0  0  0  0  0  0  0
    5.7158   -9.9000    0.0000 C   0  0  0  0  0  0  0  0  0  0  0  0
    5.0013  -10.3125    0.0000 N   0  0  0  0  0  0  0  0  0  0  0  0
    5.0013  -11.1375    0.0000 C   0  0  0  0  0  0  0  0  0  0  0  0
    5.7158  -11.5500    0.0000 C   0  0  0  0  0  0  0  0  0  0  0  0
    5.7158  -12.3750    0.0000 C   0  0  0  0  0  0  0  0  0  0  0  0
    5.0013  -12.7875    0.0000 C   0  0  0  0  0  0  0  0  0  0  0  0
    4.2868  -12.3750    0.0000 C   0  0  0  0  0  0  0  0  0  0  0  0
    3.5724  -12.7875    0.0000 N   0  0  0  0  0  0  0  0  0  0  0  0
    3.5724  -13.6125    0.0000 C   0  0  0  0  0  0  0  0  0  0  0  0
    4.2868  -14.0250    0.0000 O   0  0  0  0  0  0  0  0  0  0  0  0
    2.8579  -14.0250    0.0000 C   0  0  0  0  0  0  0  0  0  0  0  0
    2.8579  -14.8500    0.0000 O   0  0  0  0  0  0  0  0  0  0  0  0
    4.2868  -11.5500    0.0000 C   0  0  0  0  0  0  0  0  0  0  0  0
    4.2868   -9.9000    0.0000 C   0  0  0  0  0  0  0  0  0  0  0  0
    3.5724  -10.3125    0.0000 O   0  0  0  0  0  0  0  0  0  0  0  0
    2.1434   -6.1875    0.0000 C   0  0  0  0  0  0  0  0  0  0  0  0
    2.1434   -5.3625    0.0000 C   0  0  0  0  0  0  0  0  0  0  0  0
  1  2  2  0  0  0  0
  2  3  1  0  0  0  0
  2  4  1  0  0  0  0
  4  5  4  0  0  0  0
  5  6  4  0  0  0  0
  6  7  4  0  0  0  0
  7  8  1  0  0  0  0
  8  9  1  0  0  0  0
  9 10  2  0  0  0  0
  9 11  1  0  0  0  0
 11 12  1  1  0  0  0
 13 11  1  1  0  0  0
 13 14  1  0  0  0  0
 14 15  1  0  0  0  0
 15 16  1  0  0  0  0
 16 17  1  0  0  0  0
 17 18  1  0  0  0  0
 18 19  4  0  0  0  0
 19 20  4  0  0  0  0
 20 21  4  0  0  0  0
 21 22  4  0  0  0  0
 22 23  1  0  0  0  0
 23 24  1  0  0  0  0
 24 25  2  0  0  0  0
 24 26  1  0  0  0  0
 26 27  1  0  0  0  0
 22 28  4  0  0  0  0
 18 28  4  0  0  0  0
 17 29  1  0  0  0  0
 13 29  1  0  0  0  0
 29 30  2  0  0  0  0
  7 31  4  0  0  0  0
 31 32  4  0  0  0  0
  4 32  4  0  0  0  0
M  END
>  <CdId>
358968

>  <Mol Weight>
441.4372

>  <Formula>
C21H23N5O6

>  <cmpd_chemblid>
CHEMBL3658385

>  <std_type>
Ki

>  <std_value>
10.0

>  <std_unit>
nM

>  <target_id>
CHEMBL2016

>  <target_name>
Coagulation factor IX

>  <organism>
Homo sapiens

>  <target_type>
SINGLE PROTEIN

$$$$

  Mrv0541 08052111042D          

 37 40  0  0  1  0            999 V2000
    1.4289    2.4750    0.0000 C   0  0  0  0  0  0  0  0  0  0  0  0
    0.7145    2.0625    0.0000 O   0  0  0  0  0  0  0  0  0  0  0  0
    0.7145    1.2375    0.0000 C   0  0  0  0  0  0  0  0  0  0  0  0
    1.4289    0.8250    0.0000 O   0  0  0  0  0  0  0  0  0  0  0  0
    0.0000    0.8250    0.0000 C   0  0  1  0  0  0  0  0  0  0  0  0
    0.0000    0.0000    0.0000 C   0  0  0  0  0  0  0  0  0  0  0  0
    0.7145   -0.4125    0.0000 C   0  0  0  0  0  0  0  0  0  0  0  0
    1.4289    0.0000    0.0000 C   0  0  0  0  0  0  0  0  0  0  0  0
    2.1434   -0.4125    0.0000 C   0  0  0  0  0  0  0  0  0  0  0  0
    2.8579    0.0000    0.0000 C   0  0  0  0  0  0  0  0  0  0  0  0
    3.5724   -0.4125    0.0000 C   0  0  0  0  0  0  0  0  0  0  0  0
    3.5724   -1.2375    0.0000 N   0  0  0  0  0  0  0  0  0  0  0  0
    2.8579   -1.6500    0.0000 C   0  0  0  0  0  0  0  0  0  0  0  0
    2.8579   -2.4750    0.0000 N   0  0  0  0  0  0  0  0  0  0  0  0
    2.1434   -1.2375    0.0000 C   0  0  0  0  0  0  0  0  0  0  0  0
    1.4289   -1.6500    0.0000 C   0  0  0  0  0  0  0  0  0  0  0  0
    0.7145   -1.2375    0.0000 C   0  0  0  0  0  0  0  0  0  0  0  0
    0.0000   -1.6500    0.0000 F   0  0  0  0  0  0  0  0  0  0  0  0
   -0.7145    1.2375    0.0000 N   0  0  0  0  0  0  0  0  0  0  0  0
   -1.4681    0.9019    0.0000 C   0  0  0  0  0  0  0  0  0  0  0  0
   -2.0202    1.5150    0.0000 C   0  0  0  0  0  0  0  0  0  0  0  0
   -1.6077    2.2295    0.0000 C   0  0  2  0  0  0  0  0  0  0  0  0
   -1.9432    2.9832    0.0000 N   0  0  0  0  0  0  0  0  0  0  0  0
   -1.4583    3.6506    0.0000 S   0  0  0  0  0  0  0  0  0  0  0  0
   -0.7909    3.1657    0.0000 O   0  0  0  0  0  0  0  0  0  0  0  0
   -2.1258    4.1355    0.0000 O   0  0  0  0  0  0  0  0  0  0  0  0
   -0.9734    4.3181    0.0000 C   0  0  0  0  0  0  0  0  0  0  0  0
   -1.3089    5.0717    0.0000 C   0  0  0  0  0  0  0  0  0  0  0  0
   -0.8240    5.7392    0.0000 C   0  0  0  0  0  0  0  0  0  0  0  0
   -0.0035    5.6529    0.0000 C   0  0  0  0  0  0  0  0  0  0  0  0
    0.4814    6.3204    0.0000 N   0  0  0  0  0  0  0  0  0  0  0  0
    0.1458    7.0741    0.0000 C   0  0  0  0  0  0  0  0  0  0  0  0
    1.3019    6.2341    0.0000 C   0  0  0  0  0  0  0  0  0  0  0  0
    0.3320    4.8993    0.0000 N   0  0  0  0  0  0  0  0  0  0  0  0
   -0.1529    4.2318    0.0000 C   0  0  0  0  0  0  0  0  0  0  0  0
   -0.8007    2.0580    0.0000 C   0  0  0  0  0  0  0  0  0  0  0  0
   -0.1876    2.6100    0.0000 O   0  0  0  0  0  0  0  0  0  0  0  0
  1  2  1  0  0  0  0
  2  3  1  0  0  0  0
  3  4  2  0  0  0  0
  3  5  1  0  0  0  0
  5  6  1  0  0  0  0
  6  7  1  0  0  0  0
  7  8  4  0  0  0  0
  8  9  4  0  0  0  0
  9 10  4  0  0  0  0
 10 11  4  0  0  0  0
 11 12  4  0  0  0  0
 12 13  4  0  0  0  0
 13 14  1  0  0  0  0
 13 15  4  0  0  0  0
  9 15  4  0  0  0  0
 15 16  4  0  0  0  0
 16 17  4  0  0  0  0
  7 17  4  0  0  0  0
 17 18  1  0  0  0  0
  5 19  1  1  0  0  0
 19 20  1  0  0  0  0
 20 21  1  0  0  0  0
 21 22  1  0  0  0  0
 22 23  1  6  0  0  0
 23 24  1  0  0  0  0
 24 25  2  0  0  0  0
 24 26  2  0  0  0  0
 24 27  1  0  0  0  0
 27 28  4  0  0  0  0
 28 29  4  0  0  0  0
 29 30  4  0  0  0  0
 30 31  1  0  0  0  0
 31 32  1  0  0  0  0
 31 33  1  0  0  0  0
 30 34  4  0  0  0  0
 34 35  4  0  0  0  0
 27 35  4  0  0  0  0
 22 36  1  0  0  0  0
 19 36  1  0  0  0  0
 36 37  2  0  0  0  0
M  END
>  <CdId>
358969

>  <Mol Weight>
530.572

>  <Formula>
C24H27FN6O5S

>  <cmpd_chemblid>
CHEMBL3953000

>  <std_type>
Ki

>  <std_value>
310.0

>  <std_unit>
nM

>  <target_id>
CHEMBL2016

>  <target_name>
Coagulation factor IX

>  <organism>
Homo sapiens

>  <target_type>
SINGLE PROTEIN

$$$$

  Mrv0541 08052111042D          

 45 49  0  0  1  0            999 V2000
    8.6329   -2.2539    0.0000 C   0  0  0  0  0  0  0  0  0  0  0  0
    8.2204   -1.5395    0.0000 O   0  0  0  0  0  0  0  0  0  0  0  0
    7.3954   -1.5395    0.0000 C   0  0  0  0  0  0  0  0  0  0  0  0
    6.9829   -2.2539    0.0000 O   0  0  0  0  0  0  0  0  0  0  0  0
    6.9829   -0.8250    0.0000 N   0  0  0  0  0  0  0  0  0  0  0  0
    6.1579   -0.8250    0.0000 C   0  0  0  0  0  0  0  0  0  0  0  0
    5.7454   -0.1105    0.0000 C   0  0  0  0  0  0  0  0  0  0  0  0
    4.9204   -0.1105    0.0000 C   0  0  0  0  0  0  0  0  0  0  0  0
    4.5079   -0.8250    0.0000 C   0  0  0  0  0  0  0  0  0  0  0  0
    4.9204   -1.5395    0.0000 C   0  0  0  0  0  0  0  0  0  0  0  0
    5.7454   -1.5395    0.0000 C   0  0  0  0  0  0  0  0  0  0  0  0
    4.5079   -2.2539    0.0000 N   0  0  0  0  0  0  0  0  0  0  0  0
    4.9204   -2.9684    0.0000 C   0  0  0  0  0  0  0  0  0  0  0  0
    5.7454   -2.9684    0.0000 O   0  0  0  0  0  0  0  0  0  0  0  0
    4.5079   -3.6829    0.0000 C   0  0  2  0  0  0  0  0  0  0  0  0
    4.9204   -4.3974    0.0000 C   0  0  0  0  0  0  0  0  0  0  0  0
    3.6829   -3.6829    0.0000 C   0  0  0  0  0  0  0  0  0  0  0  0
    3.2704   -2.9684    0.0000 C   0  0  0  0  0  0  0  0  0  0  0  0
    2.4454   -2.9684    0.0000 C   0  0  0  0  0  0  0  0  0  0  0  0
    2.0329   -2.2539    0.0000 C   0  0  2  0  0  0  0  0  0  0  0  0
    1.2079   -2.2539    0.0000 N   0  0  0  0  0  0  0  0  0  0  0  0
    0.7954   -2.9684    0.0000 C   0  0  0  0  0  0  0  0  0  0  0  0
   -0.0296   -2.9684    0.0000 C   0  0  0  0  0  0  0  0  0  0  0  0
   -0.4421   -2.2539    0.0000 C   0  0  0  0  0  0  0  0  0  0  0  0
   -1.2671   -2.2539    0.0000 C   0  0  0  0  0  0  0  0  0  0  0  0
   -1.6796   -2.9684    0.0000 C   0  0  0  0  0  0  0  0  0  0  0  0
   -1.2671   -3.6829    0.0000 C   0  0  0  0  0  0  0  0  0  0  0  0
   -0.4421   -3.6829    0.0000 C   0  0  0  0  0  0  0  0  0  0  0  0
   -1.6796   -4.3974    0.0000 O   0  0  0  0  0  0  0  0  0  0  0  0
   -2.5046   -2.9684    0.0000 C   0  0  0  0  0  0  0  0  0  0  0  0
   -2.9171   -2.2539    0.0000 C   0  0  0  0  0  0  0  0  0  0  0  0
   -2.5046   -1.5395    0.0000 C   0  0  0  0  0  0  0  0  0  0  0  0
   -2.9171   -0.8250    0.0000 Cl  0  0  0  0  0  0  0  0  0  0  0  0
   -1.6796   -1.5395    0.0000 C   0  0  0  0  0  0  0  0  0  0  0  0
   -1.2671   -0.8250    0.0000 F   0  0  0  0  0  0  0  0  0  0  0  0
   -0.0296   -1.5395    0.0000 C   0  0  0  0  0  0  0  0  0  0  0  0
    0.7954   -1.5395    0.0000 C   0  0  0  0  0  0  0  0  0  0  0  0
    1.2079   -0.8250    0.0000 O   0  0  0  0  0  0  0  0  0  0  0  0
    2.4454   -1.5395    0.0000 C   0  0  0  0  0  0  0  0  0  0  0  0
    2.0329   -0.8250    0.0000 C   0  0  0  0  0  0  0  0  0  0  0  0
    2.4454   -0.1105    0.0000 C   0  0  0  0  0  0  0  0  0  0  0  0
    2.0329    0.6039    0.0000 F   0  0  0  0  0  0  0  0  0  0  0  0
    3.2704   -0.1105    0.0000 C   0  0  0  0  0  0  0  0  0  0  0  0
    3.6829   -0.8250    0.0000 C   0  0  0  0  0  0  0  0  0  0  0  0
    3.2704   -1.5395    0.0000 C   0  0  0  0  0  0  0  0  0  0  0  0
  1  2  1  0  0  0  0
  2  3  1  0  0  0  0
  3  4  2  0  0  0  0
  3  5  1  0  0  0  0
  5  6  1  0  0  0  0
  6  7  4  0  0  0  0
  7  8  4  0  0  0  0
  8  9  4  0  0  0  0
  9 10  4  0  0  0  0
 10 11  4  0  0  0  0
  6 11  4  0  0  0  0
 10 12  1  0  0  0  0
 12 13  1  0  0  0  0
 13 14  2  0  0  0  0
 13 15  1  0  0  0  0
 15 16  1  6  0  0  0
 15 17  1  0  0  0  0
 17 18  1  0  0  0  0
 18 19  1  0  0  0  0
 19 20  1  0  0  0  0
 20 21  1  6  0  0  0
 21 22  1  0  0  0  0
 22 23  1  0  0  0  0
 23 24  1  0  0  0  0
 24 25  1  0  0  0  0
 25 26  4  0  0  0  0
 26 27  1  0  0  0  0
 27 28  1  0  0  0  0
 27 29  2  0  0  0  0
 26 30  4  0  0  0  0
 30 31  4  0  0  0  0
 31 32  4  0  0  0  0
 32 33  1  0  0  0  0
 32 34  4  0  0  0  0
 25 34  4  0  0  0  0
 34 35  1  0  0  0  0
 24 36  2  0  0  0  0
 36 37  1  0  0  0  0
 21 37  1  0  0  0  0
 37 38  2  0  0  0  0
 20 39  1  0  0  0  0
 39 40  4  0  0  0  0
 40 41  4  0  0  0  0
 41 42  1  0  0  0  0
 41 43  4  0  0  0  0
 43 44  4  0  0  0  0
  9 44  1  0  0  0  0
 44 45  4  0  0  0  0
 39 45  4  0  0  0  0
M  END
>  <CdId>
358970

>  <Mol Weight>
636.085

>  <Formula>
C34H32ClF2N3O5

>  <cmpd_chemblid>
CHEMBL4112546

>  <std_type>
Ki

>  <std_value>
0.23

>  <std_unit>
nM

>  <target_id>
CHEMBL2016

>  <target_name>
Coagulation factor IX

>  <organism>
Homo sapiens

>  <target_type>
SINGLE PROTEIN

$$$$

  Mrv0541 08052111042D          

 39 43  0  0  1  0            999 V2000
    3.9849    3.9849    0.0000 C   0  0  0  0  0  0  0  0  0  0  0  0
    4.3974    3.2704    0.0000 C   0  0  2  0  0  0  0  0  0  0  0  0
    5.2224    3.2704    0.0000 C   0  0  0  0  0  0  0  0  0  0  0  0
    5.6349    2.5559    0.0000 C   0  0  0  0  0  0  0  0  0  0  0  0
    6.4599    2.5559    0.0000 C   0  0  0  0  0  0  0  0  0  0  0  0
    6.8724    1.8414    0.0000 C   0  0  2  0  0  0  0  0  0  0  0  0
    7.6974    1.8414    0.0000 N   0  0  0  0  0  0  0  0  0  0  0  0
    8.1099    2.5559    0.0000 C   0  0  0  0  0  0  0  0  0  0  0  0
    8.9349    2.5559    0.0000 C   0  0  0  0  0  0  0  0  0  0  0  0
    9.3474    1.8414    0.0000 C   0  0  0  0  0  0  0  0  0  0  0  0
   10.1724    1.8414    0.0000 C   0  0  0  0  0  0  0  0  0  0  0  0
   10.5849    2.5559    0.0000 C   0  0  0  0  0  0  0  0  0  0  0  0
   10.1724    3.2704    0.0000 F   0  0  0  0  0  0  0  0  0  0  0  0
   11.4099    2.5559    0.0000 C   0  0  0  0  0  0  0  0  0  0  0  0
   11.8224    1.8414    0.0000 C   0  0  0  0  0  0  0  0  0  0  0  0
   11.4099    1.1270    0.0000 C   0  0  0  0  0  0  0  0  0  0  0  0
   11.8224    0.4125    0.0000 Cl  0  0  0  0  0  0  0  0  0  0  0  0
   10.5849    1.1270    0.0000 C   0  0  0  0  0  0  0  0  0  0  0  0
   10.1724    0.4125    0.0000 F   0  0  0  0  0  0  0  0  0  0  0  0
    8.9349    1.1270    0.0000 C   0  0  0  0  0  0  0  0  0  0  0  0
    8.1099    1.1270    0.0000 C   0  0  0  0  0  0  0  0  0  0  0  0
    7.6974    0.4125    0.0000 O   0  0  0  0  0  0  0  0  0  0  0  0
    6.4599    1.1270    0.0000 C   0  0  0  0  0  0  0  0  0  0  0  0
    5.6349    1.1270    0.0000 C   0  0  0  0  0  0  0  0  0  0  0  0
    5.2224    0.4125    0.0000 C   0  0  0  0  0  0  0  0  0  0  0  0
    5.6349   -0.3020    0.0000 C   0  0  0  0  0  0  0  0  0  0  0  0
    6.4599   -0.3020    0.0000 C   0  0  0  0  0  0  0  0  0  0  0  0
    6.8724    0.4125    0.0000 N   0  0  0  0  0  0  0  0  0  0  0  0
    4.3974    0.4125    0.0000 C   0  0  0  0  0  0  0  0  0  0  0  0
    3.9849   -0.3020    0.0000 C   0  0  0  0  0  0  0  0  0  0  0  0
    4.3974   -1.0164    0.0000 C   0  0  0  0  0  0  0  0  0  0  0  0
    4.8099   -1.7309    0.0000 N   0  0  0  0  0  0  0  0  0  0  0  0
    3.1599   -0.3020    0.0000 C   0  0  0  0  0  0  0  0  0  0  0  0
    2.7474    0.4125    0.0000 C   0  0  0  0  0  0  0  0  0  0  0  0
    3.1599    1.1270    0.0000 C   0  0  0  0  0  0  0  0  0  0  0  0
    3.9849    1.1270    0.0000 C   0  0  0  0  0  0  0  0  0  0  0  0
    4.3974    1.8414    0.0000 N   0  0  0  0  0  0  0  0  0  0  0  0
    3.9849    2.5559    0.0000 C   0  0  0  0  0  0  0  0  0  0  0  0
    3.1599    2.5559    0.0000 O   0  0  0  0  0  0  0  0  0  0  0  0
  2  1  1  6  0  0  0
  2  3  1  0  0  0  0
  3  4  1  0  0  0  0
  4  5  1  0  0  0  0
  5  6  1  0  0  0  0
  6  7  1  6  0  0  0
  7  8  1  0  0  0  0
  8  9  1  0  0  0  0
  9 10  1  0  0  0  0
 10 11  1  0  0  0  0
 11 12  4  0  0  0  0
 12 13  1  0  0  0  0
 12 14  4  0  0  0  0
 14 15  4  0  0  0  0
 15 16  4  0  0  0  0
 16 17  1  0  0  0  0
 16 18  4  0  0  0  0
 11 18  4  0  0  0  0
 18 19  1  0  0  0  0
 10 20  2  0  0  0  0
 20 21  1  0  0  0  0
  7 21  1  0  0  0  0
 21 22  2  0  0  0  0
  6 23  1  0  0  0  0
 23 24  4  0  0  0  0
 24 25  4  0  0  0  0
 25 26  4  0  0  0  0
 26 27  4  0  0  0  0
 27 28  4  0  0  0  0
 23 28  4  0  0  0  0
 25 29  1  0  0  0  0
 29 30  4  0  0  0  0
 30 31  1  0  0  0  0
 31 32  3  0  0  0  0
 30 33  4  0  0  0  0
 33 34  4  0  0  0  0
 34 35  4  0  0  0  0
 35 36  4  0  0  0  0
 29 36  4  0  0  0  0
 36 37  1  0  0  0  0
 37 38  1  0  0  0  0
  2 38  1  0  0  0  0
 38 39  2  0  0  0  0
M  END
>  <CdId>
358972

>  <Mol Weight>
546.995

>  <Formula>
C30H25ClF2N4O2

>  <cmpd_chemblid>
CHEMBL4112583

>  <std_type>
Ki

>  <std_value>
98.59

>  <std_unit>
nM

>  <target_id>
CHEMBL2016

>  <target_name>
Coagulation factor IX

>  <organism>
Homo sapiens

>  <target_type>
SINGLE PROTEIN

$$$$

  Mrv0541 08052111042D          

 39 43  0  0  1  0            999 V2000
    1.4289   -2.4750    0.0000 N   0  0  0  0  0  0  0  0  0  0  0  0
    1.4289   -1.6500    0.0000 C   0  0  0  0  0  0  0  0  0  0  0  0
    0.7145   -1.2375    0.0000 N   0  0  0  0  0  0  0  0  0  0  0  0
    0.7145   -0.4125    0.0000 C   0  0  0  0  0  0  0  0  0  0  0  0
    1.4289    0.0000    0.0000 C   0  0  0  0  0  0  0  0  0  0  0  0
    2.1434   -0.4125    0.0000 C   0  0  0  0  0  0  0  0  0  0  0  0
    2.8579    0.0000    0.0000 C   0  0  0  0  0  0  0  0  0  0  0  0
    3.5724   -0.4125    0.0000 C   0  0  0  0  0  0  0  0  0  0  0  0
    4.2868   -0.0000    0.0000 C   0  0  0  0  0  0  0  0  0  0  0  0
    4.2868    0.8250    0.0000 C   0  0  2  0  0  0  0  0  0  0  0  0
    3.5724    1.2375    0.0000 C   0  0  0  0  0  0  0  0  0  0  0  0
    2.8579    0.8250    0.0000 O   0  0  0  0  0  0  0  0  0  0  0  0
    3.5724    2.0625    0.0000 O   0  0  0  0  0  0  0  0  0  0  0  0
    5.0013    1.2375    0.0000 N   0  0  0  0  0  0  0  0  0  0  0  0
    5.0875    2.0580    0.0000 C   0  0  0  0  0  0  0  0  0  0  0  0
    5.8945    2.2295    0.0000 C   0  0  0  0  0  0  0  0  0  0  0  0
    6.3070    1.5150    0.0000 C   0  0  2  0  0  0  0  0  0  0  0  0
    7.1275    1.4288    0.0000 N   0  0  0  0  0  0  0  0  0  0  0  0
    7.6124    2.0962    0.0000 S   0  0  0  0  0  0  0  0  0  0  0  0
    8.2798    1.6113    0.0000 O   0  0  0  0  0  0  0  0  0  0  0  0
    6.9450    2.5812    0.0000 O   0  0  0  0  0  0  0  0  0  0  0  0
    8.0973    2.7637    0.0000 C   0  0  0  0  0  0  0  0  0  0  0  0
    7.8424    3.5483    0.0000 C   0  0  0  0  0  0  0  0  0  0  0  0
    8.5098    4.0332    0.0000 N   0  0  0  0  0  0  0  0  0  0  0  0
    9.1773    3.5483    0.0000 C   0  0  0  0  0  0  0  0  0  0  0  0
    9.9619    3.8032    0.0000 N   0  0  0  0  0  0  0  0  0  0  0  0
   10.2168    4.5879    0.0000 C   0  0  0  0  0  0  0  0  0  0  0  0
   11.0418    4.5879    0.0000 C   0  0  0  0  0  0  0  0  0  0  0  0
   11.2968    3.8032    0.0000 C   0  0  0  0  0  0  0  0  0  0  0  0
   12.0504    4.1388    0.0000 F   0  0  0  0  0  0  0  0  0  0  0  0
   11.7093    3.0888    0.0000 F   0  0  0  0  0  0  0  0  0  0  0  0
   10.6293    3.3183    0.0000 C   0  0  0  0  0  0  0  0  0  0  0  0
    8.9223    2.7637    0.0000 S   0  0  0  0  0  0  0  0  0  0  0  0
    5.7550    0.9019    0.0000 C   0  0  0  0  0  0  0  0  0  0  0  0
    5.9265    0.0950    0.0000 O   0  0  0  0  0  0  0  0  0  0  0  0
    3.5724   -1.2375    0.0000 C   0  0  0  0  0  0  0  0  0  0  0  0
    4.2868   -1.6500    0.0000 Cl  0  0  0  0  0  0  0  0  0  0  0  0
    2.8579   -1.6500    0.0000 C   0  0  0  0  0  0  0  0  0  0  0  0
    2.1434   -1.2375    0.0000 C   0  0  0  0  0  0  0  0  0  0  0  0
  1  2  1  0  0  0  0
  2  3  4  0  0  0  0
  3  4  4  0  0  0  0
  4  5  4  0  0  0  0
  5  6  4  0  0  0  0
  6  7  4  0  0  0  0
  7  8  4  0  0  0  0
  8  9  1  0  0  0  0
  9 10  1  0  0  0  0
 10 11  1  0  0  0  0
 11 12  2  0  0  0  0
 11 13  1  0  0  0  0
 10 14  1  6  0  0  0
 14 15  1  0  0  0  0
 15 16  1  0  0  0  0
 16 17  1  0  0  0  0
 17 18  1  6  0  0  0
 18 19  1  0  0  0  0
 19 20  2  0  0  0  0
 19 21  2  0  0  0  0
 19 22  1  0  0  0  0
 22 23  4  0  0  0  0
 23 24  4  0  0  0  0
 24 25  4  0  0  0  0
 25 26  1  0  0  0  0
 26 27  1  0  0  0  0
 27 28  1  0  0  0  0
 28 29  1  0  0  0  0
 29 30  1  0  0  0  0
 29 31  1  0  0  0  0
 29 32  1  0  0  0  0
 26 32  1  0  0  0  0
 25 33  4  0  0  0  0
 22 33  4  0  0  0  0
 17 34  1  0  0  0  0
 14 34  1  0  0  0  0
 34 35  2  0  0  0  0
  8 36  4  0  0  0  0
 36 37  1  0  0  0  0
 36 38  4  0  0  0  0
 38 39  4  0  0  0  0
  2 39  4  0  0  0  0
  6 39  4  0  0  0  0
M  END
>  <CdId>
358974

>  <Mol Weight>
601.046

>  <Formula>
C23H23ClF2N6O5S2

>  <cmpd_chemblid>
CHEMBL3967421

>  <std_type>
Ki

>  <std_value>
55.0

>  <std_unit>
nM

>  <target_id>
CHEMBL2016

>  <target_name>
Coagulation factor IX

>  <organism>
Homo sapiens

>  <target_type>
SINGLE PROTEIN

$$$$

  Mrv0541 08052111042D          

 39 43  0  0  0  0            999 V2000
    1.2450    8.0916    0.0000 C   0  0  0  0  0  0  0  0  0  0  0  0
    1.8581    7.5396    0.0000 C   0  0  0  0  0  0  0  0  0  0  0  0
    2.6427    7.7945    0.0000 O   0  0  0  0  0  0  0  0  0  0  0  0
    3.2558    7.2425    0.0000 C   0  0  0  0  0  0  0  0  0  0  0  0
    3.0843    6.4355    0.0000 O   0  0  0  0  0  0  0  0  0  0  0  0
    4.0404    7.4974    0.0000 C   0  0  0  0  0  0  0  0  0  0  0  0
    4.2954    8.2820    0.0000 N   0  0  0  0  0  0  0  0  0  0  0  0
    5.1204    8.2820    0.0000 C   0  0  0  0  0  0  0  0  0  0  0  0
    5.3753    7.4974    0.0000 C   0  0  0  0  0  0  0  0  0  0  0  0
    4.7079    7.0125    0.0000 N   0  0  0  0  0  0  0  0  0  0  0  0
    4.7079    6.1875    0.0000 C   0  0  0  0  0  0  0  0  0  0  0  0
    5.4223    5.7750    0.0000 C   0  0  0  0  0  0  0  0  0  0  0  0
    5.4223    4.9500    0.0000 C   0  0  0  0  0  0  0  0  0  0  0  0
    4.7079    4.5375    0.0000 C   0  0  0  0  0  0  0  0  0  0  0  0
    4.7079    3.7125    0.0000 N   0  0  0  0  0  0  0  0  0  0  0  0
    3.9934    3.3000    0.0000 C   0  0  0  0  0  0  0  0  0  0  0  0
    3.2789    3.7125    0.0000 O   0  0  0  0  0  0  0  0  0  0  0  0
    3.9934    2.4750    0.0000 C   0  0  0  0  0  0  0  0  0  0  0  0
    3.2789    2.0625    0.0000 O   0  0  0  0  0  0  0  0  0  0  0  0
    3.2789    1.2375    0.0000 C   0  0  0  0  0  0  0  0  0  0  0  0
    3.9934    0.8250    0.0000 C   0  0  0  0  0  0  0  0  0  0  0  0
    3.9934    0.0000    0.0000 C   0  0  0  0  0  0  0  0  0  0  0  0
    3.2789   -0.4125    0.0000 C   0  0  0  0  0  0  0  0  0  0  0  0
    2.5645    0.0000    0.0000 C   0  0  0  0  0  0  0  0  0  0  0  0
    1.7798   -0.2549    0.0000 S   0  0  0  0  0  0  0  0  0  0  0  0
    1.2949    0.4125    0.0000 C   0  0  0  0  0  0  0  0  0  0  0  0
    0.4699    0.4125    0.0000 C   0  0  0  0  0  0  0  0  0  0  0  0
    0.0574   -0.3020    0.0000 N   0  0  0  0  0  0  0  0  0  0  0  0
    0.0574    1.1270    0.0000 N   0  0  0  0  0  0  0  0  0  0  0  0
    1.7798    1.0799    0.0000 C   0  0  0  0  0  0  0  0  0  0  0  0
    2.5645    0.8250    0.0000 C   0  0  0  0  0  0  0  0  0  0  0  0
    4.7079    2.0625    0.0000 C   0  0  0  0  0  0  0  0  0  0  0  0
    5.4223    2.4750    0.0000 C   0  0  0  0  0  0  0  0  0  0  0  0
    6.1368    2.0625    0.0000 C   0  0  0  0  0  0  0  0  0  0  0  0
    6.1368    1.2375    0.0000 C   0  0  0  0  0  0  0  0  0  0  0  0
    5.4223    0.8250    0.0000 C   0  0  0  0  0  0  0  0  0  0  0  0
    4.7079    1.2375    0.0000 C   0  0  0  0  0  0  0  0  0  0  0  0
    3.9934    4.9500    0.0000 C   0  0  0  0  0  0  0  0  0  0  0  0
    3.9934    5.7750    0.0000 C   0  0  0  0  0  0  0  0  0  0  0  0
  1  2  1  0  0  0  0
  2  3  1  0  0  0  0
  3  4  1  0  0  0  0
  4  5  2  0  0  0  0
  4  6  1  0  0  0  0
  6  7  4  0  0  0  0
  7  8  4  0  0  0  0
  8  9  4  0  0  0  0
  9 10  4  0  0  0  0
  6 10  4  0  0  0  0
 10 11  1  0  0  0  0
 11 12  4  0  0  0  0
 12 13  4  0  0  0  0
 13 14  4  0  0  0  0
 14 15  1  0  0  0  0
 15 16  1  0  0  0  0
 16 17  2  0  0  0  0
 16 18  1  0  0  0  0
 18 19  1  0  0  0  0
 19 20  1  0  0  0  0
 20 21  4  0  0  0  0
 21 22  4  0  0  0  0
 22 23  4  0  0  0  0
 23 24  4  0  0  0  0
 24 25  4  0  0  0  0
 25 26  4  0  0  0  0
 26 27  1  0  0  0  0
 27 28  2  0  0  0  0
 27 29  1  0  0  0  0
 26 30  4  0  0  0  0
 30 31  4  0  0  0  0
 20 31  4  0  0  0  0
 24 31  4  0  0  0  0
 18 32  1  0  0  0  0
 32 33  4  0  0  0  0
 33 34  4  0  0  0  0
 34 35  4  0  0  0  0
 35 36  4  0  0  0  0
 36 37  4  0  0  0  0
 32 37  4  0  0  0  0
 14 38  4  0  0  0  0
 38 39  4  0  0  0  0
 11 39  4  0  0  0  0
M  END
>  <CdId>
358976

>  <Mol Weight>
539.605

>  <Formula>
C29H25N5O4S

>  <cmpd_chemblid>
CHEMBL604500

>  <std_type>
Ki

>  <std_value>
420.0

>  <std_unit>
nM

>  <target_id>
CHEMBL2016

>  <target_name>
Coagulation factor IX

>  <organism>
Homo sapiens

>  <target_type>
SINGLE PROTEIN

$$$$
